@<TRIPOS>MOLECULE
ABCOOORLYAOBOZ-KQYNXXCUSA-L	11070745	-1626.4420712107265
 37 38 0 0 0
SMALL
MULLIKEN NwChem

@<TRIPOS>ATOM
      1 C           2.1964    1.7556    0.0791 C.3     1  LIG1       -0.08000000000000007
      2 C          -1.4027    0.0571   -1.5546 C.ar    1  LIG1       0.17999999999999972
      3 C          -3.5576   -1.4998    1.8364 C.2     1  LIG1       0.28000000000000025
      4 C           1.3774    0.7439    0.8802 C.3     1  LIG1       0.13999999999999968
      5 C          -3.5292   -0.2180   -1.5331 C.ar    1  LIG1       0.08000000000000007
      6 C           1.4604   -0.7345    0.4534 C.3     1  LIG1       0.08000000000000007
      7 C           0.1464   -1.2765    1.0383 C.3     1  LIG1       0.08000000000000007
      8 C          -4.8947   -0.3444   -2.0630 C.2     1  LIG1           0.5
      9 C          -3.1297   -0.3711   -0.1905 C.ar    1  LIG1       0.45999999999999996
     10 C          -0.8264   -0.0856    0.8918 C.3     1  LIG1          0.25
     11 N          -5.8795   -0.3450   -1.0891 N.am    1  LIG1        -0.79
     12 N          -2.4361    0.0395   -2.3508 N.ar    1  LIG1      -0.5700000000000003
     13 N          -3.9045   -0.5863    0.9079 N.am    1  LIG1      -0.6200000000000001
     14 N          -1.7378   -0.1863   -0.2315 N.ar    1  LIG1      -0.45999999999999996
     15 O          -4.1975   -1.7690    2.8611 O.2     1  LIG1      -0.5999999999999996
     16 O           2.5398   -1.4532    0.9909 O.3     1  LIG1      -0.7300000000000004
     17 O           0.3427   -1.5549    2.4189 O.3     1  LIG1      -0.6899999999999995
     18 O          -5.1799   -0.4241   -3.2642 O.2     1  LIG1      -0.6300000000000008
     19 O           4.4146   -0.3239   -0.4250 O.2     1  LIG1      -0.7100000000000009
     20 O           4.7108    1.8493   -1.6886 O.3     1  LIG1      -0.7200000000000006
     21 O           6.0314    1.5718    0.5096 O.3     1  LIG1      -0.6799999999999997
     22 O           3.5215    1.8798    0.5890 O.3     1  LIG1      -0.5800000000000001
     23 O          -0.0098    1.0807    0.7183 O.3     1  LIG1      -0.5500000000000007
     24 P           4.7837    1.1254   -0.1856 P.3     1  LIG1       1.0899999999999999
     25 H           1.7136    2.7354    0.1864 H       1  LIG1       0.17000000000000004
     26 H           2.1954    1.4981   -0.9876 H       1  LIG1       0.17000000000000004
     27 H          -0.3826    0.2745   -1.8397 H       1  LIG1       0.18999999999999995
     28 H          -2.6168   -2.0758    1.6268 H       1  LIG1       0.06999999999999995
     29 H           1.6708    0.8162    1.9377 H       1  LIG1          0.14
     30 H           1.4402   -0.7915   -0.6461 H       1  LIG1       0.15000000000000002
     31 H          -0.2334   -2.1610    0.5097 H       1  LIG1       0.16000000000000003
     32 H          -1.4337    0.0079    1.7961 H       1  LIG1       0.18000000000000005
     33 H          -6.7655   -0.7266   -1.3903 H       1  LIG1       0.33999999999999997
     34 H          -5.5708   -0.4950   -0.1218 H       1  LIG1          0.36
     35 H           3.3639   -1.0780    0.5516 H       1  LIG1       0.45999999999999996
     36 H           1.2960   -1.7633    2.4745 H       1  LIG1       0.43000000000000005
     37 H           5.2212    2.6685   -1.5956 H       1  LIG1       0.44999999999999996
@<TRIPOS>BOND
     1    18     8    2
     2    12     2   ar
     3    12     5   ar
     4     8     5    1
     5     8    11   am
     6    27     2    1
     7    20    37    1
     8    20    24    1
     9     2    14   ar
    10     5     9   ar
    11    33    11    1
    12    11    34    1
    13    26     1    1
    14    30     6    1
    15    19    24    2
    16    14     9   ar
    17    14    10    1
    18     9    13    1
    19    24    21    1
    20    24    22    1
    21     1    25    1
    22     1    22    1
    23     1     4    1
    24     6     4    1
    25     6    16    1
    26     6     7    1
    27    31     7    1
    28    35    16    1
    29    23     4    1
    30    23    10    1
    31     4    29    1
    32    10     7    1
    33    10    32    1
    34    13     3   am
    35     7    17    1
    36    28     3    1
    37     3    15    2
    38    17    36    1
