@<TRIPOS>MOLECULE
ACFIXJIJDZMPPO-NNYOXOHSSA-J	11070853	-3502.336353129463
 74 78 0 0 0
SMALL
MULLIKEN NwChem

@<TRIPOS>ATOM
      1 C          -9.0833   -2.0006   -1.0454 C.2     1  LIG1      -0.1900000000000004
      2 C         -10.5057   -1.4942   -1.0267 C.3     1  LIG1      -0.33999999999999986
      3 C          -8.0218   -1.2107   -1.2674 C.2     1  LIG1      0.03000000000000025
      4 C          -9.4519    0.6999   -1.5145 C.2     1  LIG1       -0.08999999999999986
      5 C          -3.9277    0.1065    0.1528 C.3     1  LIG1       -0.04999999999999982
      6 C           2.6766   -1.3969   -0.2327 C.3     1  LIG1       -0.08999999999999986
      7 C           6.7829    0.1179   -3.4180 C.ar    1  LIG1       0.15000000000000036
      8 C           8.5486   -0.8875    0.4418 C.ar    1  LIG1       0.21999999999999975
      9 C         -10.5736    0.0026   -1.2556 C.2     1  LIG1       0.03000000000000025
     10 C          -4.8889    1.1737   -0.3547 C.3     1  LIG1       0.1299999999999999
     11 C           3.8011   -1.1111    0.7641 C.3     1  LIG1       0.1299999999999999
     12 C           8.6755   -0.4116   -1.6275 C.ar    1  LIG1       0.1900000000000004
     13 C          -5.7580    1.7870    0.7699 C.3     1  LIG1       0.07000000000000028
     14 C           4.0767    0.3639    1.1253 C.3     1  LIG1       0.08999999999999986
     15 C          -7.1053    1.1058    0.5360 C.3     1  LIG1       0.09999999999999964
     16 C           5.5943    0.3654    1.4945 C.3     1  LIG1       0.09999999999999964
     17 C           9.0176   -0.0400   -2.9292 C.ar    1  LIG1       0.41999999999999993
     18 C         -11.9866    0.6178   -1.3640 C.2     1  LIG1       0.41999999999999993
     19 C           7.2935   -0.4832   -1.3380 C.ar    1  LIG1       0.5300000000000002
     20 C          -7.1227    1.0387   -1.0006 C.3     1  LIG1          0.25
     21 C           6.0923   -0.9760    0.8863 C.3     1  LIG1          0.25
     22 N          10.3584    0.0500   -3.3221 N.pl3   1  LIG1      -0.7800000000000002
     23 N         -12.2067    1.8643   -0.9688 N.am    1  LIG1      -0.8399999999999999
     24 N           8.0639    0.2311   -3.8349 N.ar    1  LIG1        -0.54
     25 N           6.3123   -0.2244   -2.2197 N.ar    1  LIG1      -0.5300000000000002
     26 N           9.4430   -0.6701   -0.5096 N.ar    1  LIG1      -0.5999999999999996
     27 N          -8.1364    0.1583   -1.5579 N.pl3   1  LIG1      -0.45999999999999996
     28 N           7.2395   -0.8326   -0.0114 N.ar    1  LIG1      -0.5300000000000002
     29 O          -5.9041    3.1951    0.5724 O.3     1  LIG1      -0.6899999999999995
     30 O           3.3268    0.8373    2.2352 O.3     1  LIG1      -0.6999999999999993
     31 O          -8.1718    1.8644    1.0969 O.3     1  LIG1      -0.6799999999999997
     32 O         -12.8458   -0.1744   -1.8520 O.2     1  LIG1      -0.7100000000000009
     33 O           7.8357   -1.1098    3.3196 O.3     1  LIG1      -0.7699999999999996
     34 O           8.1074    1.3063    2.4848 O.2     1  LIG1      -0.7799999999999994
     35 O           7.2376    0.8623    4.9278 O.3     1  LIG1      -0.7300000000000004
     36 O          -1.2058   -1.8054   -1.7715 O.2     1  LIG1      -0.6600000000000001
     37 O          -2.7076   -2.5461    0.2971 O.3     1  LIG1      -0.6699999999999999
     38 O           0.6450    0.4531    1.9827 O.3     1  LIG1      -0.6999999999999993
     39 O           0.7934    0.9024   -0.5919 O.2     1  LIG1      -0.6300000000000008
     40 O          -3.0527   -0.2833   -0.8835 O.3     1  LIG1      -0.5800000000000001
     41 O           1.4000   -1.4156    0.4208 O.3     1  LIG1      -0.5600000000000005
     42 O          -5.8190    0.6140   -1.3294 O.3     1  LIG1      -0.5600000000000005
     43 O           5.0189   -1.5748    0.1680 O.3     1  LIG1      -0.5500000000000007
     44 O           5.6997    0.3653    2.8814 O.3     1  LIG1      -0.6999999999999993
     45 O          -1.0083   -0.6608    0.5884 O.3     1  LIG1      -0.6300000000000008
     46 P           7.4501    0.3770    3.5087 P.3     1  LIG1       1.0299999999999994
     47 P          -1.9883   -1.5293   -0.5348 P.3     1  LIG1       1.1500000000000004
     48 P           0.4655   -0.0806    0.4733 P.3     1  LIG1       1.1799999999999997
     49 H          -8.9045   -3.0638   -0.8907 H       1  LIG1          0.14
     50 H         -11.0035   -1.7513   -0.0738 H       1  LIG1          0.14
     51 H         -11.1393   -1.9696   -1.7915 H       1  LIG1          0.14
     52 H          -6.9986   -1.5719   -1.2644 H       1  LIG1       0.17000000000000004
     53 H          -9.5031    1.7561   -1.7712 H       1  LIG1       0.17000000000000004
     54 H          -4.4911   -0.7556    0.5374 H       1  LIG1       0.16000000000000003
     55 H          -3.3569    0.5381    0.9910 H       1  LIG1       0.16000000000000003
     56 H           2.6828   -0.6695   -1.0501 H       1  LIG1       0.18000000000000005
     57 H           2.8230   -2.3981   -0.6502 H       1  LIG1       0.18999999999999995
     58 H           6.0301    0.3506   -4.1712 H       1  LIG1       0.16000000000000003
     59 H           8.7070   -1.0664    1.5114 H       1  LIG1       0.21999999999999997
     60 H          -4.3190    1.9721   -0.8432 H       1  LIG1       0.16000000000000003
     61 H           3.5969   -1.6569    1.7001 H       1  LIG1       0.16000000000000003
     62 H          -5.3389    1.5861    1.7660 H       1  LIG1       0.16000000000000003
     63 H           3.8663    0.9999    0.2584 H       1  LIG1       0.17000000000000004
     64 H          -7.0930    0.0799    0.9304 H       1  LIG1       0.16000000000000003
     65 H           6.1412    1.2081    1.0516 H       1  LIG1          0.14
     66 H          -7.3295    2.0506   -1.3874 H       1  LIG1       0.16000000000000003
     67 H           6.4357   -1.5974    1.7210 H       1  LIG1       0.18999999999999995
     68 H          10.9613    0.2046   -2.5195 H       1  LIG1          0.36
     69 H          10.4867    0.7473   -4.0476 H       1  LIG1          0.36
     70 H         -11.3351    2.2235   -0.5598 H       1  LIG1          0.26
     71 H          -6.8184    3.3820    0.8542 H       1  LIG1       0.43000000000000005
     72 H           3.9989    0.7612    2.9703 H       1  LIG1       0.43999999999999995
     73 H          -8.9894    1.5644    0.6554 H       1  LIG1       0.43999999999999995
     74 H           1.6099    0.6332    2.1558 H       1  LIG1           0.48
@<TRIPOS>BOND
     1    58     7    1
     2    69    22    1
     3    24     7   ar
     4    24    17   ar
     5     7    25   ar
     6    22    17    1
     7    22    68    1
     8    17    12   ar
     9    25    19   ar
    10    32    18    2
    11    51     2    1
    12    36    47    2
    13    53     4    1
    14    12    19   ar
    15    12    26   ar
    16    27     4    1
    17    27     3    1
    18    27    20    1
    19     4     9    2
    20    66    20    1
    21    18     9    1
    22    18    23   am
    23    19    28   ar
    24    42    20    1
    25    42    10    1
    26     3    52    1
    27     3     1    2
    28     9     2    1
    29    56     6    1
    30     1     2    1
    31     1    49    1
    32     2    50    1
    33    20    15    1
    34    23    70    1
    35    40    47    1
    36    40     5    1
    37    60    10    1
    38    57     6    1
    39    39    48    2
    40    47    37    1
    41    47    45    1
    42    26     8   ar
    43    10     5    1
    44    10    13    1
    45     6    41    1
    46     6    11    1
    47    28     8   ar
    48    28    21    1
    49     5    54    1
    50     5    55    1
    51    43    11    1
    52    43    21    1
    53    63    14    1
    54    41    48    1
    55     8    59    1
    56    48    45    1
    57    48    38    1
    58    15    13    1
    59    15    64    1
    60    15    31    1
    61    29    13    1
    62    29    71    1
    63    73    31    1
    64    11    14    1
    65    11    61    1
    66    13    62    1
    67    21    16    1
    68    21    67    1
    69    65    16    1
    70    14    16    1
    71    14    30    1
    72    16    44    1
    73    38    74    1
    74    30    72    1
    75    34    46    2
    76    44    46    1
    77    33    46    1
    78    46    35    1
