@<TRIPOS>MOLECULE
ACIVVGBVOVHFPQ-RPDRRWSUSA-L	11084017	-1569.6067667515472
 39 39 0 0 0
SMALL
MULLIKEN NwChem

@<TRIPOS>ATOM
      1 C           1.4441    0.5345    0.4025 C.3     1  LIG1       -0.16999999999999993
      2 C          -3.1644    0.3034   -0.0244 C.3     1  LIG1       -0.019999999999999574
      3 C           0.4284    1.6024    0.8438 C.3     1  LIG1       0.08999999999999986
      4 C          -1.9672    0.6687    0.8609 C.3     1  LIG1       0.04999999999999982
      5 C           3.8580    0.4678   -2.3023 C.ar    1  LIG1       0.03000000000000025
      6 C          -0.9271    1.5067    0.0976 C.3     1  LIG1       0.09999999999999964
      7 C           2.8762   -0.0440   -1.5221 C.ar    1  LIG1       0.5099999999999998
      8 C           4.9238   -0.4263   -2.8121 C.ar    1  LIG1           0.5
      9 C           3.8406   -2.2904   -1.8500 C.ar    1  LIG1       0.5899999999999999
     10 N           3.9281    1.8812   -2.5759 N.pl3   1  LIG1      -0.8399999999999999
     11 N           3.7060   -3.5823   -1.6769 N.pl3   1  LIG1      -0.8300000000000001
     12 N           1.8302    0.7399   -0.9996 N.pl3   1  LIG1      -0.6600000000000001
     13 N           2.8870   -1.3953   -1.2338 N.ar    1  LIG1      -0.7300000000000004
     14 N           4.8618   -1.7586   -2.5626 N.ar    1  LIG1      -0.6699999999999999
     15 O           0.2654    1.5857    2.2613 O.3     1  LIG1      -0.6899999999999995
     16 O          -1.3392   -0.4984    1.4084 O.3     1  LIG1      -0.6999999999999993
     17 O          -1.4839    2.8072   -0.1491 O.3     1  LIG1      -0.6699999999999999
     18 O           5.8684    0.1140   -3.4461 O.2     1  LIG1      -0.6999999999999993
     19 O          -4.8007    1.2597    2.2282 O.2     1  LIG1      -0.6999999999999993
     20 O          -3.5458   -0.8431    3.0712 O.3     1  LIG1      -0.7599999999999998
     21 O          -5.9418   -1.1582    2.2294 O.3     1  LIG1      -0.6799999999999997
     22 O          -4.0755   -0.6043    0.5875 O.3     1  LIG1      -0.5999999999999996
     23 P          -4.7805   -0.2281    2.0525 P.3     1  LIG1       1.0999999999999996
     24 H           2.3028    0.5854    1.0917 H       1  LIG1       0.15000000000000002
     25 H           0.9827   -0.4506    0.5207 H       1  LIG1       0.17000000000000004
     26 H          -2.8010   -0.2074   -0.9252 H       1  LIG1       0.15000000000000002
     27 H          -3.6672    1.2327   -0.3187 H       1  LIG1       0.15000000000000002
     28 H           0.8421    2.5920    0.6044 H       1  LIG1       0.15000000000000002
     29 H          -2.3440    1.2862    1.6888 H       1  LIG1       0.15000000000000002
     30 H          -0.7345    1.0873   -0.8957 H       1  LIG1       0.16000000000000003
     31 H           3.3927    2.0794   -3.4262 H       1  LIG1       0.32999999999999996
     32 H           4.9033    2.0074   -2.8681 H       1  LIG1       0.31000000000000005
     33 H           2.8872   -3.7515   -1.0796 H       1  LIG1          0.27
     34 H           2.1019    1.7106   -1.1608 H       1  LIG1       0.33999999999999997
     35 H           2.0076   -1.8081   -0.9522 H       1  LIG1          0.36
     36 H          -0.1820    0.7315    2.4312 H       1  LIG1       0.42000000000000004
     37 H          -2.0234   -0.8713    2.0113 H       1  LIG1       0.44999999999999996
     38 H          -1.7451    3.1512    0.7216 H       1  LIG1       0.42000000000000004
     39 H          -3.8584   -1.7354    3.2889 H       1  LIG1       0.43999999999999995
@<TRIPOS>BOND
     1    18     8    2
     2    31    10    1
     3    32    10    1
     4     8    14   ar
     5     8     5   ar
     6    10     5    1
     7    14     9   ar
     8     5     7   ar
     9     9    11    1
    10     9    13   ar
    11    11    33    1
    12     7    13   ar
    13     7    12    1
    14    13    35    1
    15    34    12    1
    16    12     1    1
    17    26     2    1
    18    30     6    1
    19    27     2    1
    20    17     6    1
    21    17    38    1
    22     2    22    1
    23     2     4    1
    24     6     3    1
    25     6     4    1
    26     1    25    1
    27     1     3    1
    28     1    24    1
    29    22    23    1
    30    28     3    1
    31     3    15    1
    32     4    16    1
    33     4    29    1
    34    16    37    1
    35    23    19    2
    36    23    21    1
    37    23    20    1
    38    15    36    1
    39    20    39    1
