@<TRIPOS>MOLECULE
ADSGHWJRPOXXTD-IHWYPQMZSA-M	6044262	-991.0083609540201
 13 13 0 0 0
SMALL
MULLIKEN NwChem

@<TRIPOS>ATOM
      1 C          -1.2298   -0.5447    0.1786 C.2     1  LIG1       -0.1299999999999999
      2 C          -0.4640    1.7277    0.9409 C.2     1  LIG1       -0.2999999999999998
      3 C          -0.3050    0.5404    0.3163 C.2     1  LIG1       0.3799999999999999
      4 C          -0.6141   -1.5195   -0.5370 C.2     1  LIG1       -0.16999999999999993
      5 C           0.5167    2.8951    1.0459 C.2     1  LIG1       0.4900000000000002
      6 C           0.7432   -1.0774   -0.8854 C.2     1  LIG1       0.6100000000000003
      7 CL         -1.2403   -3.0693   -1.0129 Cl      1  LIG1      0.010000000000001563
      8 O           0.2856    3.7856    0.1992 O.co2   1  LIG1      -0.6300000000000008
      9 O           1.3394    2.8200    1.9783 O.co2   1  LIG1      -0.6300000000000008
     10 O           1.6242   -1.6285   -1.5100 O.2     1  LIG1      -0.5299999999999994
     11 O           0.8784    0.1851   -0.3400 O.3     1  LIG1      -0.5199999999999996
     12 H          -2.2322   -0.5513    0.5868 H       1  LIG1       0.21999999999999997
     13 H          -1.4375    1.8771    1.4073 H       1  LIG1       0.20999999999999996
@<TRIPOS>BOND
     1    10     6    2
     2     7     4    1
     3     6     4    1
     4     6    11    1
     5     4     1    2
     6    11     3    1
     7     1     3    1
     8     1    12    1
     9     8     5   ar
    10     3     2    2
    11     2     5    1
    12     2    13    1
    13     5     9   ar
