@<TRIPOS>MOLECULE
ADSGHWJRPOXXTD-NSCUHMNNSA-M	6044263	-991.0117656388036
 13 13 0 0 0
SMALL
MULLIKEN NwChem

@<TRIPOS>ATOM
      1 C           0.6804   -0.0104   -0.1343 C.2     1  LIG1       -0.11000000000000032
      2 C          -1.0541    1.7600    0.3335 C.2     1  LIG1       -0.3200000000000003
      3 C          -0.6480    0.4984    0.1107 C.2     1  LIG1       0.40000000000000036
      4 C           0.5674   -1.3456   -0.2950 C.2     1  LIG1       -0.16999999999999993
      5 C          -0.1294    3.0024    0.3825 C.2     1  LIG1       0.5499999999999998
      6 C          -0.8474   -1.7455   -0.1600 C.2     1  LIG1       0.6299999999999999
      7 CL          1.8135   -2.5119   -0.6138 Cl      1  LIG1      0.019999999999999574
      8 O          -0.7571    4.0586    0.6267 O.co2   1  LIG1      -0.6600000000000001
      9 O           1.0963    2.8086    0.1800 O.co2   1  LIG1      -0.6600000000000001
     10 O          -1.3773   -2.8317   -0.2337 O.2     1  LIG1      -0.5199999999999996
     11 O          -1.5487   -0.5833    0.0872 O.3     1  LIG1      -0.5299999999999994
     12 H           1.5266    0.6631   -0.1589 H       1  LIG1       0.20999999999999996
     13 H          -2.1149    1.9351    0.4990 H       1  LIG1       0.16000000000000003
@<TRIPOS>BOND
     1     7     4    1
     2     4     6    1
     3     4     1    2
     4    10     6    2
     5     6    11    1
     6    12     1    1
     7     1     3    1
     8    11     3    1
     9     3     2    2
    10     9     5   ar
    11     2     5    1
    12     2    13    1
    13     5     8   ar
