@<TRIPOS>MOLECULE
ADVPTQAUNPRNPO-REOHCLBHSA-M	6044264	-871.7863317361355
 15 14 0 0 0
SMALL
MULLIKEN NwChem

@<TRIPOS>ATOM
      1 C1          0.2439    0.7818    0.9377 C.3     1  <1>        -0.4800000000000004
      2 C2          0.0460    1.3662   -0.4542 C.3     1  <1>        -0.07000000000000028
      3 C3          0.8347    0.5526   -1.5316 C.2     1  <1>        0.5599999999999996
      4 N1         -1.3977    1.4578   -0.7845 N.3     1  <1>       -0.7699999999999996
      5 O1          0.8516    1.0369   -2.6795 O.co2   1  <1>       -0.6500000000000004
      6 O2          1.3367   -0.5418   -1.1163 O.co2   1  <1>       -0.6500000000000004
      7 O3         -0.1850   -1.1595    2.6580 O.3     1  <1>         -0.75
      8 O4         -1.1270   -1.4337    0.2920 O.3     1  <1>       -0.6999999999999993
      9 S1          0.1877   -1.0738    0.9375 S.3     1  <1>       0.9299999999999997
     10 H1         -0.5346    1.1210    1.6303 H       1  <1>        0.18999999999999995
     11 H2          1.2269    1.0329    1.3506 H       1  <1>        0.19999999999999996
     12 H3          0.4436    2.3917   -0.4637 H       1  <1>        0.15000000000000002
     13 H4         -1.4106    1.6519   -1.7893 H       1  <1>        0.31000000000000005
     14 H5         -1.7591    0.5041   -0.6989 H       1  <1>        0.31999999999999995
     15 H6         -1.1158   -0.8691    2.7155 H       1  <1>        0.42000000000000004
@<TRIPOS>BOND
     1     5     3   ar
     2    13     4    1
     3     3     6   ar
     4     3     2    1
     5     4    14    1
     6     4     2    1
     7    12     2    1
     8     2     1    1
     9     8     9    1
    10     9     1    1
    11     9     7    1
    12     1    11    1
    13     1    10    1
    14     7    15    1
