@<TRIPOS>MOLECULE
ADZJVTNIXNSNGU-UKOYHULUSA-J	11070869	-4487.760341561282
 117 119 0 0 0
SMALL
MULLIKEN NwChem

@<TRIPOS>ATOM
      1 C          -4.0342    3.5378   -0.0211 C.3     1  LIG1      -0.45999999999999996
      2 C          -1.5593   -2.8831   -3.1497 C.3     1  LIG1      -0.5099999999999998
      3 C          -2.5107   -0.5604   -3.1777 C.3     1  LIG1      -0.4800000000000004
      4 C          -3.5455    2.0888    0.0984 C.3     1  LIG1      -0.2699999999999996
      5 C          -2.0277    1.9503    0.2931 C.3     1  LIG1      -0.28000000000000025
      6 C          -1.1984    2.3962   -0.9210 C.3     1  LIG1      -0.2699999999999996
      7 C           0.2368    1.8614   -0.8723 C.3     1  LIG1      -0.29000000000000004
      8 C           1.0753    2.2987   -2.0916 C.3     1  LIG1      -0.3200000000000003
      9 C           2.4022    1.5842   -2.1632 C.2     1  LIG1      -0.15000000000000036
     10 C           2.6067    0.3742   -2.7016 C.2     1  LIG1      -0.1200000000000001
     11 C           1.5315   -0.4853   -3.3179 C.3     1  LIG1      -0.3700000000000001
     12 C           1.9548   -1.3280   -4.5349 C.3     1  LIG1      -0.29000000000000004
     13 C          -3.4032   -6.6860   -0.5833 C.3     1  LIG1       -0.34999999999999964
     14 C          -4.2599   -6.0562   -1.7094 C.3     1  LIG1       -0.1200000000000001
     15 C           0.2892   -5.9578   -1.1832 C.3     1  LIG1       -0.13999999999999968
     16 C           0.5250   -6.1732   -2.6847 C.3     1  LIG1       -0.45999999999999996
     17 C           2.2728   -3.5205   -3.2446 C.3     1  LIG1       -0.40000000000000036
     18 C           0.5050    1.3177    3.2554 C.3     1  LIG1       -0.08999999999999986
     19 C          -2.6701   -1.9269   -1.0875 C.3     1  LIG1       -0.07000000000000028
     20 C          -1.3034    5.8365    0.4335 C.ar    1  LIG1       0.16000000000000014
     21 C           2.9251    5.0534   -0.1032 C.ar    1  LIG1       0.21999999999999975
     22 C           2.8640   -2.5357   -4.2823 C.3     1  LIG1       0.15000000000000036
     23 C           1.4726    2.4665    3.4317 C.3     1  LIG1       0.1299999999999999
     24 C          -1.9594   -6.9282   -1.0042 C.2     1  LIG1       0.5800000000000001
     25 C           3.0818   -4.7962   -3.2196 C.2     1  LIG1       0.2999999999999998
     26 C           1.0686    5.8079   -0.7661 C.ar    1  LIG1       0.20999999999999996
     27 C           1.9891    4.8084    3.5667 C.3     1  LIG1       0.1299999999999999
     28 C           0.8690    3.7680    3.9804 C.3     1  LIG1       0.1200000000000001
     29 C          -4.0756   -2.5429   -3.0994 C.3     1  LIG1       0.08000000000000007
     30 C          -0.0570    6.2999   -1.4409 C.ar    1  LIG1       0.41999999999999993
     31 C           0.8463    5.2953    0.5286 C.ar    1  LIG1          0.54
     32 C          -4.2822   -4.0933   -2.9624 C.2     1  LIG1       0.4900000000000002
     33 C           2.4704    4.1577    2.2094 C.3     1  LIG1       0.2400000000000002
     34 C          -2.6943   -1.9879   -2.6290 C.3     1  LIG1       0.08000000000000007
     35 N           0.0334    6.7811   -2.7457 N.pl3   1  LIG1      -0.7800000000000002
     36 N          -1.1245   -5.8727   -0.8814 N.am    1  LIG1      -0.6100000000000003
     37 N          -4.0430   -4.6281   -1.7901 N.am    1  LIG1      -0.5800000000000001
     38 N          -1.2465    6.3256   -0.8287 N.ar    1  LIG1        -0.54
     39 N          -0.3340    5.2930    1.1604 N.ar    1  LIG1      -0.5300000000000002
     40 N           2.3879    5.6502   -1.1523 N.ar    1  LIG1      -0.5800000000000001
     41 N           2.0705    4.8176    0.9436 N.ar    1  LIG1         -0.5
     42 O           4.1638   -2.0865   -3.9109 O.3     1  LIG1      -0.6799999999999997
     43 O          -1.5919   -8.0264   -1.4578 O.2     1  LIG1      -0.6099999999999994
     44 O           4.3025   -4.8048   -3.3455 O.2     1  LIG1         -0.5
     45 O           3.0403    4.8642    4.4097 O.3     1  LIG1      -0.8000000000000007
     46 O          -4.2950   -2.2313   -4.4713 O.3     1  LIG1      -0.7200000000000006
     47 O          -4.6915   -4.6569   -4.0375 O.2     1  LIG1      -0.7100000000000009
     48 O          -0.5207    5.9218    5.4849 O.2     1  LIG1      -0.7400000000000002
     49 O          -0.2944    4.3930    7.6152 O.3     1  LIG1      -0.7100000000000009
     50 O           1.7935    5.4969    6.6016 O.3     1  LIG1      -0.7899999999999991
     51 O           2.1789   -0.2958    0.9772 O.3     1  LIG1      -0.7100000000000009
     52 O           2.0280   -2.2816    2.7000 O.2     1  LIG1      -0.6099999999999994
     53 O          -0.9043   -3.5702    0.5844 O.3     1  LIG1      -0.6699999999999999
     54 O           0.9875   -2.1839   -0.6074 O.2     1  LIG1      -0.7200000000000006
     55 O           1.1821    0.0264    3.3078 O.3     1  LIG1      -0.5199999999999996
     56 O          -1.4361   -1.3458   -0.6051 O.3     1  LIG1      -0.5800000000000001
     57 O           2.0305    2.8181    2.1459 O.3     1  LIG1      -0.5299999999999994
     58 O           0.6366    3.5971    5.3574 O.3     1  LIG1      -0.6400000000000006
     59 O          -0.0993   -1.2749    1.5205 O.3     1  LIG1      -0.6699999999999999
     60 P           0.2756    4.9560    6.3362 P.3     1  LIG1       1.0299999999999994
     61 P           1.3965   -1.0536    2.1615 P.3     1  LIG1       1.1999999999999993
     62 P          -0.3192   -2.2496    0.1723 P.3     1  LIG1       1.2799999999999994
     63 S           2.3028   -6.4151   -3.1028 S.3     1  LIG1      0.08999999999999986
     64 H          -3.5316    4.0689   -0.8377 H       1  LIG1       0.15000000000000002
     65 H          -5.1177    3.5858   -0.2021 H       1  LIG1          0.14
     66 H          -3.8230    4.0902    0.9025 H       1  LIG1       0.15000000000000002
     67 H          -0.5881   -2.4679   -2.8692 H       1  LIG1       0.17000000000000004
     68 H          -1.6485   -3.8867   -2.7247 H       1  LIG1       0.15000000000000002
     69 H          -1.6216   -2.9567   -4.2429 H       1  LIG1          0.14
     70 H          -1.5783   -0.1326   -2.7982 H       1  LIG1       0.16000000000000003
     71 H          -2.4950   -0.5682   -4.2712 H       1  LIG1          0.14
     72 H          -3.3362    0.0908   -2.8578 H       1  LIG1          0.14
     73 H          -3.8388    1.5248   -0.7996 H       1  LIG1          0.14
     74 H          -4.0612    1.6084    0.9422 H       1  LIG1          0.13
     75 H          -1.8009    0.8977    0.4982 H       1  LIG1       0.15000000000000002
     76 H          -1.7151    2.5272    1.1744 H       1  LIG1          0.13
     77 H          -1.1880    3.4919   -0.9987 H       1  LIG1          0.14
     78 H          -1.6799    2.0243   -1.8389 H       1  LIG1          0.13
     79 H           0.1998    0.7673   -0.8445 H       1  LIG1       0.15000000000000002
     80 H           0.7400    2.1766    0.0493 H       1  LIG1          0.14
     81 H           1.2393    3.3830   -2.0553 H       1  LIG1          0.14
     82 H           0.4905    2.1019   -3.0031 H       1  LIG1          0.14
     83 H           3.2361    2.0765   -1.6618 H       1  LIG1          0.13
     84 H           3.5944   -0.0779   -2.6440 H       1  LIG1          0.13
     85 H           0.6837    0.1371   -3.6275 H       1  LIG1       0.15000000000000002
     86 H           1.1326   -1.1396   -2.5325 H       1  LIG1       0.21999999999999997
     87 H           2.4631   -0.6928   -5.2752 H       1  LIG1          0.14
     88 H           1.0452   -1.7144   -5.0162 H       1  LIG1       0.15000000000000002
     89 H          -3.8048   -7.6709   -0.3128 H       1  LIG1       0.15000000000000002
     90 H          -3.4506   -6.0270    0.2919 H       1  LIG1       0.15000000000000002
     91 H          -5.3207   -6.2855   -1.4762 H       1  LIG1          0.12
     92 H          -4.0514   -6.5791   -2.6583 H       1  LIG1       0.10999999999999999
     93 H           0.7425   -5.0234   -0.8431 H       1  LIG1       0.18000000000000005
     94 H           0.7494   -6.7923   -0.6366 H       1  LIG1       0.17000000000000004
     95 H           0.0986   -5.3602   -3.2757 H       1  LIG1       0.21999999999999997
     96 H           0.0397   -7.1050   -2.9859 H       1  LIG1       0.20999999999999996
     97 H           2.2641   -3.0781   -2.2374 H       1  LIG1       0.22999999999999998
     98 H           1.2260   -3.7154   -3.4815 H       1  LIG1       0.18999999999999995
     99 H          -0.1812    1.3157    4.1061 H       1  LIG1       0.18999999999999995
    100 H          -0.0555    1.4133    2.3234 H       1  LIG1       0.19999999999999996
    101 H          -2.8249   -2.9195   -0.6657 H       1  LIG1       0.16000000000000003
    102 H          -3.4731   -1.2641   -0.7375 H       1  LIG1       0.15000000000000002
    103 H          -2.2824    5.8774    0.9029 H       1  LIG1       0.17000000000000004
    104 H           3.9617    4.7502   -0.0291 H       1  LIG1       0.20999999999999996
    105 H           2.9372   -3.0877   -5.2413 H       1  LIG1          0.13
    106 H           2.2765    2.1739    4.1192 H       1  LIG1       0.15000000000000002
    107 H           1.4877    5.7805    3.3485 H       1  LIG1       0.06999999999999995
    108 H          -0.0611    4.0139    3.4465 H       1  LIG1          0.12
    109 H          -4.8530   -2.0454   -2.4878 H       1  LIG1       0.10999999999999999
    110 H           3.5663    4.2151    2.2174 H       1  LIG1       0.15000000000000002
    111 H           0.8055    6.3596   -3.2514 H       1  LIG1          0.37
    112 H          -0.8507    6.6924   -3.2346 H       1  LIG1          0.36
    113 H           4.6325   -2.8938   -3.6279 H       1  LIG1       0.42000000000000004
    114 H           2.3599    5.2775    5.7651 H       1  LIG1       0.42000000000000004
    115 H          -4.5402   -3.1430   -4.7962 H       1  LIG1          0.39
    116 H           1.9855   -0.8139    0.1523 H       1  LIG1          0.47
    117 H          -1.4071   -5.0040   -0.4133 H       1  LIG1            0.4
@<TRIPOS>BOND
     1    87    12    1
     2   105    22    1
     3    88    12    1
     4   115    46    1
     5    12    22    1
     6    12    11    1
     7    46    29    1
     8    22    42    1
     9    22    17    1
    10    71     3    1
    11    69     2    1
    12    47    32    2
    13    42   113    1
    14    85    11    1
    15    98    17    1
    16    44    25    2
    17    11    10    1
    18    11    86    1
    19    95    16    1
    20   111    35    1
    21    17    25    1
    22    17    97    1
    23   112    35    1
    24    25    63    1
    25     3    72    1
    26     3    70    1
    27     3    34    1
    28     2    67    1
    29     2    68    1
    30     2    34    1
    31    63    16    1
    32    29    32    1
    33    29    34    1
    34    29   109    1
    35    82     8    1
    36    96    16    1
    37    32    37   am
    38    35    30    1
    39    10    84    1
    40    10     9    2
    41    16    15    1
    42    92    14    1
    43    34    19    1
    44     9     8    1
    45     9    83    1
    46     8    81    1
    47     8     7    1
    48    78     6    1
    49    37    14    1
    50    14    91    1
    51    14    13    1
    52    43    24    2
    53    30    38   ar
    54    30    26   ar
    55    15    36    1
    56    15    93    1
    57    15    94    1
    58    40    26   ar
    59    40    21   ar
    60    19   102    1
    61    19   101    1
    62    19    56    1
    63    24    36   am
    64    24    13    1
    65    77     6    1
    66     6     7    1
    67     6     5    1
    68    36   117    1
    69     7    79    1
    70     7    80    1
    71    64     1    1
    72    38    20   ar
    73    73     4    1
    74    26    31   ar
    75    54    62    2
    76    56    62    1
    77    13    89    1
    78    13    90    1
    79    65     1    1
    80    21   104    1
    81    21    41   ar
    82     1     4    1
    83     1    66    1
    84     4     5    1
    85     4    74    1
    86   116    51    1
    87    62    53    1
    88    62    59    1
    89     5    75    1
    90     5    76    1
    91    20   103    1
    92    20    39   ar
    93    31    41   ar
    94    31    39   ar
    95    41    33    1
    96    51    61    1
    97    59    61    1
    98    57    33    1
    99    57    23    1
   100    61    52    2
   101    61    55    1
   102    33   110    1
   103    33    27    1
   104   100    18    1
   105    18    55    1
   106    18    23    1
   107    18    99    1
   108   107    27    1
   109    23    28    1
   110    23   106    1
   111   108    28    1
   112    27    28    1
   113    27    45    1
   114    28    58    1
   115    58    60    1
   116    48    60    2
   117   114    50    1
   118    60    50    1
   119    60    49    1
