@<TRIPOS>MOLECULE
ADZJVTNIXNSNGU-OVQIFRBASA-J	11070868	-4487.711463083048
 117 119 0 0 0
SMALL
MULLIKEN NwChem

@<TRIPOS>ATOM
      1 C          -0.0115   -4.9727    3.3632 C.3     1  LIG1      -0.45999999999999996
      2 C           4.0955   -0.3542    2.9623 C.3     1  LIG1      -0.4900000000000002
      3 C           2.2550   -1.9969    3.4911 C.3     1  LIG1      -0.4800000000000004
      4 C          -0.9725   -4.5295    2.2559 C.3     1  LIG1      -0.2699999999999996
      5 C          -0.5476   -5.0101    0.8623 C.3     1  LIG1      -0.2599999999999998
      6 C          -1.5225   -4.5841   -0.2430 C.3     1  LIG1      -0.2699999999999996
      7 C          -1.2455   -5.1594   -1.6393 C.3     1  LIG1      -0.2699999999999996
      8 C           0.1153   -4.7454   -2.2465 C.3     1  LIG1      -0.3099999999999996
      9 C           0.2458   -3.2631   -2.4939 C.2     1  LIG1      -0.1299999999999999
     10 C           0.9816   -2.4466   -1.7337 C.2     1  LIG1      -0.1200000000000001
     11 C           1.1376   -0.9542   -1.8901 C.3     1  LIG1      -0.3099999999999996
     12 C           2.5280   -0.4863   -1.4378 C.3     1  LIG1      -0.3099999999999996
     13 C           5.3292    3.5616    5.6781 C.3     1  LIG1       -0.3200000000000003
     14 C           3.9665    3.0431    6.1984 C.3     1  LIG1       -0.1200000000000001
     15 C           5.9939    5.1241    2.3553 C.3     1  LIG1       -0.11000000000000032
     16 C           4.7521    4.7864    1.5098 C.3     1  LIG1       -0.4400000000000004
     17 C           4.1457    1.3678   -0.9024 C.3     1  LIG1       -0.3799999999999999
     18 C          -4.4562   -0.5771    0.1503 C.3     1  LIG1       -0.11000000000000032
     19 C           1.7720    0.4734    3.5098 C.3     1  LIG1       -0.07000000000000028
     20 C          -0.2989    2.0424   -2.7704 C.ar    1  LIG1       0.20999999999999996
     21 C          -2.6096   -0.5223   -5.4488 C.ar    1  LIG1       0.23000000000000043
     22 C           2.6912    1.0358   -1.3076 C.3     1  LIG1       0.13999999999999968
     23 C          -4.7158   -1.0547   -1.2602 C.3     1  LIG1       0.1299999999999999
     24 C           5.2454    4.5118    4.4678 C.2     1  LIG1       0.4900000000000002
     25 C           4.3215    2.8311   -0.4979 C.2     1  LIG1       0.2699999999999996
     26 C          -0.9776    0.7552   -5.0178 C.ar    1  LIG1       0.20000000000000018
     27 C          -3.0979   -2.1142   -2.7131 C.3     1  LIG1       0.1200000000000001
     28 C          -4.1435   -2.4695   -1.6192 C.3     1  LIG1       0.07000000000000028
     29 C           3.1840   -0.5553    5.3207 C.3     1  LIG1       0.08000000000000007
     30 C           0.1700    1.5585   -4.9729 C.ar    1  LIG1       0.45999999999999996
     31 C          -1.7378    0.6843   -3.8340 C.ar    1  LIG1       0.5700000000000003
     32 C           3.8991    0.7318    5.8672 C.2     1  LIG1       0.4900000000000002
     33 C          -3.7480   -0.8426   -3.2962 C.3     1  LIG1       0.23000000000000043
     34 C           2.8336   -0.5993    3.7999 C.3     1  LIG1       0.08000000000000007
     35 N           1.0085    1.6786   -6.0601 N.pl3   1  LIG1      -0.7800000000000002
     36 N           6.1230    4.2439    3.4974 N.am    1  LIG1      -0.6200000000000001
     37 N           3.4032    1.8839    5.5078 N.am    1  LIG1      -0.5800000000000001
     38 N           0.4970    2.2022   -3.8423 N.ar    1  LIG1        -0.54
     39 N          -1.4227    1.3204   -2.6912 N.ar    1  LIG1      -0.6100000000000003
     40 N          -1.5416   -0.0051   -6.0266 N.ar    1  LIG1      -0.5800000000000001
     41 N          -2.8024   -0.1230   -4.1437 N.ar    1  LIG1      -0.5099999999999998
     42 O           1.7411    1.5966   -0.4139 O.3     1  LIG1      -0.6899999999999995
     43 O           4.4120    5.4679    4.5196 O.2     1  LIG1      -0.7100000000000009
     44 O           4.2367    3.7390   -1.3129 O.2     1  LIG1      -0.5099999999999998
     45 O          -2.7796   -3.0758   -3.6552 O.3     1  LIG1      -0.7100000000000009
     46 O           4.0178   -1.6568    5.6586 O.3     1  LIG1      -0.7200000000000006
     47 O           4.8533    0.4527    6.6836 O.2     1  LIG1      -0.7200000000000006
     48 O          -6.6766   -1.8424   -3.3437 O.3     1  LIG1      -0.7699999999999996
     49 O          -7.0441   -4.4444   -3.2930 O.3     1  LIG1      -0.7200000000000006
     50 O          -5.0385   -3.3861   -4.5819 O.2     1  LIG1      -0.8100000000000005
     51 O          -2.6132    2.0645   -0.4239 O.3     1  LIG1      -0.6899999999999995
     52 O          -3.4945    1.7303    1.9568 O.2     1  LIG1      -0.5999999999999996
     53 O          -0.2413   -1.4045    0.9172 O.3     1  LIG1      -0.6999999999999993
     54 O          -1.0651   -0.6654    3.3040 O.2     1  LIG1      -0.6199999999999992
     55 O          -3.0330   -0.3416    0.4065 O.3     1  LIG1      -0.5800000000000001
     56 O           1.1346    0.2351    2.1691 O.3     1  LIG1      -0.5700000000000003
     57 O          -4.1359   -0.0812   -2.1764 O.3     1  LIG1      -0.5600000000000005
     58 O          -5.1023   -3.4184   -1.9854 O.3     1  LIG1      -0.6699999999999999
     59 O          -1.0752    0.9536    1.2266 O.3     1  LIG1      -0.6199999999999992
     60 P          -6.1088   -3.2639   -3.4295 P.3     1  LIG1       1.0399999999999991
     61 P          -2.6555    1.1710    0.8755 P.3     1  LIG1       1.2300000000000004
     62 P          -0.3689   -0.2699    2.0602 P.3     1  LIG1       1.3200000000000003
     63 S           4.6876    2.9660    1.2326 S.3     1  LIG1      0.08000000000000007
     64 H          -0.3427   -4.6157    4.3467 H       1  LIG1          0.14
     65 H           0.9920   -4.5695    3.1945 H       1  LIG1       0.16000000000000003
     66 H           0.0684   -6.0690    3.4085 H       1  LIG1          0.14
     67 H           4.8566   -1.0961    3.2253 H       1  LIG1          0.14
     68 H           4.4946    0.6444    3.1594 H       1  LIG1       0.15000000000000002
     69 H           3.8751   -0.4410    1.8903 H       1  LIG1       0.17000000000000004
     70 H           1.3122   -2.1600    4.0272 H       1  LIG1       0.15000000000000002
     71 H           2.0542   -2.1173    2.4209 H       1  LIG1       0.16000000000000003
     72 H           2.9675   -2.7627    3.8076 H       1  LIG1       0.15000000000000002
     73 H          -1.9852   -4.9032    2.4712 H       1  LIG1          0.13
     74 H          -1.0389   -3.4360    2.2614 H       1  LIG1          0.14
     75 H          -0.4551   -6.1100    0.8670 H       1  LIG1          0.12
     76 H           0.4551   -4.6155    0.6470 H       1  LIG1          0.14
     77 H          -2.5451   -4.8667    0.0459 H       1  LIG1          0.13
     78 H          -1.5185   -3.4907   -0.3103 H       1  LIG1          0.14
     79 H          -1.2844   -6.2605   -1.5866 H       1  LIG1          0.12
     80 H          -2.0397   -4.8288   -2.3182 H       1  LIG1       0.15000000000000002
     81 H           0.9360   -5.0853   -1.5975 H       1  LIG1          0.14
     82 H           0.2303   -5.2777   -3.2037 H       1  LIG1          0.13
     83 H          -0.3531   -2.8718   -3.3159 H       1  LIG1          0.14
     84 H           1.5147   -2.8752   -0.8809 H       1  LIG1          0.13
     85 H           0.9434   -0.6503   -2.9266 H       1  LIG1          0.14
     86 H           0.3999   -0.4345   -1.2705 H       1  LIG1       0.17000000000000004
     87 H           3.2998   -0.8773   -2.1189 H       1  LIG1       0.15000000000000002
     88 H           2.7376   -0.9248   -0.4507 H       1  LIG1       0.15000000000000002
     89 H           5.9928    2.7189    5.4668 H       1  LIG1       0.09999999999999998
     90 H           5.7876    4.1473    6.4966 H       1  LIG1          0.12
     91 H           4.0865    2.8131    7.2752 H       1  LIG1       0.08999999999999997
     92 H           3.2598    3.8794    6.1103 H       1  LIG1       0.08999999999999997
     93 H           6.8922    5.0312    1.7162 H       1  LIG1       0.10999999999999999
     94 H           5.8835    6.1947    2.6300 H       1  LIG1       0.10999999999999999
     95 H           4.7139    5.2672    0.5237 H       1  LIG1       0.18000000000000005
     96 H           3.8674    5.0460    2.0969 H       1  LIG1       0.18999999999999995
     97 H           4.8044    1.1743   -1.7607 H       1  LIG1       0.18999999999999995
     98 H           4.4588    0.7093   -0.0828 H       1  LIG1       0.18000000000000005
     99 H          -4.7872   -1.3370    0.8648 H       1  LIG1       0.19999999999999996
    100 H          -5.0006    0.3489    0.3574 H       1  LIG1       0.18999999999999995
    101 H           2.2019    1.4709    3.4685 H       1  LIG1       0.18999999999999995
    102 H           0.9733    0.4534    4.2526 H       1  LIG1       0.17000000000000004
    103 H           0.0197    2.5317   -1.8558 H       1  LIG1       0.18999999999999995
    104 H          -3.3006   -1.2333   -5.8846 H       1  LIG1       0.19999999999999996
    105 H           2.4817    1.5244   -2.2648 H       1  LIG1       0.15000000000000002
    106 H          -5.7960   -1.1040   -1.4425 H       1  LIG1       0.17000000000000004
    107 H          -2.1774   -1.7792   -2.2038 H       1  LIG1       0.15000000000000002
    108 H          -3.6262   -2.8792   -0.7422 H       1  LIG1       0.15000000000000002
    109 H           2.2235   -0.6471    5.8665 H       1  LIG1       0.10999999999999999
    110 H          -4.6160   -1.0974   -3.9140 H       1  LIG1       0.18999999999999995
    111 H           0.5879    1.4586   -6.9525 H       1  LIG1          0.38
    112 H           1.6173    2.4857   -6.0327 H       1  LIG1          0.37
    113 H           1.7991    1.1673    0.4610 H       1  LIG1       0.43999999999999995
    114 H          -3.7419   -3.3397   -4.0920 H       1  LIG1       0.43999999999999995
    115 H           4.6767   -1.1529    6.2269 H       1  LIG1          0.39
    116 H          -2.2682    1.6068   -1.2643 H       1  LIG1           0.5
    117 H          -1.0912   -1.5025    0.4446 H       1  LIG1            0.5
@<TRIPOS>BOND
     1   111    35    1
     2    35   112    1
     3    35    30    1
     4    40    21   ar
     5    40    26   ar
     6   104    21    1
     7    21    41   ar
     8    26    30   ar
     9    26    31   ar
    10    30    38   ar
    11    50    60    2
    12    41    31   ar
    13    41    33    1
    14   114    45    1
    15   110    33    1
    16    38    20   ar
    17    31    39   ar
    18    45    27    1
    19    60    48    1
    20    60    49    1
    21    60    58    1
    22    83     9    1
    23    33    27    1
    24    33    57    1
    25    82     8    1
    26    85    11    1
    27    20    39   ar
    28    20   103    1
    29    27   107    1
    30    27    28    1
    31     9     8    1
    32     9    10    2
    33    80     7    1
    34   105    22    1
    35     8     7    1
    36     8    81    1
    37    57    23    1
    38    87    12    1
    39    58    28    1
    40    11    10    1
    41    11    12    1
    42    11    86    1
    43    97    17    1
    44    10    84    1
    45     7    79    1
    46     7     6    1
    47    28    23    1
    48    28   108    1
    49   106    23    1
    50    12    22    1
    51    12    88    1
    52    44    25    2
    53    22    17    1
    54    22    42    1
    55   116    51    1
    56    23    18    1
    57    17    25    1
    58    17    98    1
    59    25    63    1
    60    51    61    1
    61    42   113    1
    62    78     6    1
    63     6    77    1
    64     6     5    1
    65    18   100    1
    66    18    55    1
    67    18    99    1
    68    55    61    1
    69   117    53    1
    70    95    16    1
    71    76     5    1
    72     5    75    1
    73     5     4    1
    74    61    59    1
    75    61    52    2
    76    53    62    1
    77    59    62    1
    78    63    16    1
    79    16    96    1
    80    16    15    1
    81    93    15    1
    82    69     2    1
    83    62    56    1
    84    62    54    2
    85    56    19    1
    86     4    74    1
    87     4    73    1
    88     4     1    1
    89    15    94    1
    90    15    36    1
    91    71     3    1
    92     2    68    1
    93     2    67    1
    94     2    34    1
    95    65     1    1
    96     1    66    1
    97     1    64    1
    98   101    19    1
    99     3    34    1
   100     3    72    1
   101     3    70    1
   102    36    24   am
   103    19    34    1
   104    19   102    1
   105    34    29    1
   106    24    43    2
   107    24    13    1
   108    29    46    1
   109    29   109    1
   110    29    32    1
   111    89    13    1
   112    37    32   am
   113    37    14    1
   114    46   115    1
   115    13    14    1
   116    13    90    1
   117    32    47    2
   118    92    14    1
   119    14    91    1
