@<TRIPOS>MOLECULE
AEMOLEFTQBMNLQ-BKBMJHBISA-M	6044267	-760.6204975220239
 22 22 0 0 0
SMALL
MULLIKEN NwChem

@<TRIPOS>ATOM
      1 C           0.2768    1.6176   -0.1615 C.3     1  LIG1       0.08999999999999986
      2 C           1.0132    0.3583    0.3164 C.3     1  LIG1       0.11000000000000032
      3 C          -1.2326    1.4455    0.0674 C.3     1  LIG1       0.09999999999999964
      4 C           0.4186   -0.9266   -0.2774 C.3     1  LIG1       -0.019999999999999574
      5 C           1.0449   -2.2260    0.3562 C.2     1  LIG1       0.5599999999999996
      6 C          -1.7312    0.1059   -0.5084 C.3     1  LIG1       0.29000000000000004
      7 O           0.7863    2.7597    0.5168 O.3     1  LIG1      -0.6899999999999995
      8 O           0.9298    0.3739    1.7296 O.3     1  LIG1      -0.7300000000000004
      9 O          -2.0050    2.5063   -0.4866 O.3     1  LIG1      -0.6799999999999997
     10 O           1.1935   -2.1681    1.6203 O.co2   1  LIG1      -0.6600000000000001
     11 O           1.3269   -3.1442   -0.4267 O.co2   1  LIG1      -0.6300000000000008
     12 O          -1.7791    0.2022   -1.9494 O.3     1  LIG1      -0.6799999999999997
     13 O          -1.0099   -0.9945   -0.0542 O.3     1  LIG1      -0.5099999999999998
     14 H           0.4577    1.7803   -1.2343 H       1  LIG1          0.14
     15 H           2.0671    0.4186   -0.0176 H       1  LIG1          0.13
     16 H          -1.4060    1.4412    1.1471 H       1  LIG1       0.15000000000000002
     17 H           0.6271   -0.9630   -1.3598 H       1  LIG1          0.14
     18 H          -2.7730   -0.0540   -0.2140 H       1  LIG1       0.17000000000000004
     19 H           0.9344    2.4254    1.4217 H       1  LIG1       0.42000000000000004
     20 H           1.0251   -0.6119    1.9664 H       1  LIG1       0.42000000000000004
     21 H          -2.0671    2.2811   -1.4320 H       1  LIG1       0.42000000000000004
     22 H          -0.8808    0.0154   -2.2673 H       1  LIG1       0.43999999999999995
@<TRIPOS>BOND
     1    22    12    1
     2    12     6    1
     3    21     9    1
     4    17     4    1
     5    14     1    1
     6     6    18    1
     7     6    13    1
     8     6     3    1
     9     9     3    1
    10    11     5   ar
    11     4    13    1
    12     4     2    1
    13     4     5    1
    14     1     3    1
    15     1     2    1
    16     1     7    1
    17    15     2    1
    18     3    16    1
    19     2     8    1
    20     5    10   ar
    21     7    19    1
    22     8    20    1
