@<TRIPOS>MOLECULE
AEMOLEFTQBMNLQ-QIUUJYRFSA-M	6044268	-760.6233253659642
 22 22 0 0 0
SMALL
MULLIKEN NwChem

@<TRIPOS>ATOM
      1 C           0.4098    1.5713   -0.3577 C.3     1  LIG1       0.1200000000000001
      2 C           1.0494    0.2802    0.1545 C.3     1  LIG1       0.11000000000000032
      3 C          -1.0427    1.6082    0.0785 C.3     1  LIG1       0.11000000000000032
      4 C           0.2588   -0.9626   -0.2929 C.3     1  LIG1           0.0
      5 C           0.9021   -2.2767    0.2688 C.2     1  LIG1       0.5599999999999996
      6 C          -1.7361    0.3095   -0.3783 C.3     1  LIG1       0.3200000000000003
      7 O           1.1240    2.7005    0.1374 O.3     1  LIG1      -0.6899999999999995
      8 O           2.3813    0.2505   -0.3141 O.3     1  LIG1      -0.7300000000000004
      9 O          -1.7224    2.7266   -0.4817 O.3     1  LIG1      -0.6899999999999995
     10 O           2.1718   -2.2862    0.1214 O.co2   1  LIG1      -0.6699999999999999
     11 O           0.1646   -3.1402    0.7556 O.co2   1  LIG1      -0.6300000000000008
     12 O          -3.0843    0.3071    0.0649 O.3     1  LIG1      -0.6600000000000001
     13 O          -1.1142   -0.8362    0.1249 O.3     1  LIG1      -0.5299999999999994
     14 H           0.4420    1.5568   -1.4615 H       1  LIG1          0.13
     15 H           1.0173    0.3116    1.2605 H       1  LIG1          0.12
     16 H          -1.0792    1.6373    1.1816 H       1  LIG1          0.13
     17 H           0.2970   -1.0131   -1.3953 H       1  LIG1       0.15000000000000002
     18 H          -1.7826    0.3054   -1.4811 H       1  LIG1          0.14
     19 H           2.0547    2.4205    0.0701 H       1  LIG1       0.43000000000000005
     20 H           2.6066   -0.7303   -0.1951 H       1  LIG1       0.42000000000000004
     21 H          -2.6635    2.5406   -0.3197 H       1  LIG1       0.42000000000000004
     22 H          -3.0378   -0.0389    0.9733 H       1  LIG1       0.43000000000000005
@<TRIPOS>BOND
     1    18     6    1
     2    14     1    1
     3    17     4    1
     4     9    21    1
     5     9     3    1
     6     6    12    1
     7     6     3    1
     8     6    13    1
     9     1     3    1
    10     1     7    1
    11     1     2    1
    12     8    20    1
    13     8     2    1
    14     4    13    1
    15     4     2    1
    16     4     5    1
    17    12    22    1
    18    19     7    1
    19     3    16    1
    20    10     5   ar
    21     2    15    1
    22     5    11   ar
