@<TRIPOS>MOLECULE
AEMOLEFTQBMNLQ-WAXACMCWSA-M	6044269	-760.6227949886293
 22 22 0 0 0
SMALL
MULLIKEN NwChem

@<TRIPOS>ATOM
      1 C           0.1884    1.5375   -0.1472 C.3     1  LIG1       0.11000000000000032
      2 C           0.9438    0.2974    0.3224 C.3     1  LIG1       0.11000000000000032
      3 C          -1.2608    1.4663    0.3242 C.3     1  LIG1       0.09999999999999964
      4 C           0.2520   -0.9878   -0.1544 C.3     1  LIG1       -0.03000000000000025
      5 C           1.0169   -2.2714    0.3327 C.2     1  LIG1       0.5599999999999996
      6 C          -1.8767    0.1051   -0.0855 C.3     1  LIG1       0.29000000000000004
      7 O           0.8186    2.7159    0.3401 O.3     1  LIG1      -0.6899999999999995
      8 O           2.2665    0.3938   -0.1635 O.3     1  LIG1      -0.7200000000000006
      9 O          -2.0785    2.5184   -0.1750 O.3     1  LIG1      -0.6799999999999997
     10 O           2.2799   -2.1599    0.1711 O.co2   1  LIG1      -0.6699999999999999
     11 O           0.3644   -3.2212    0.7737 O.co2   1  LIG1      -0.6300000000000008
     12 O          -2.1753    0.1389   -1.4971 O.3     1  LIG1      -0.6699999999999999
     13 O          -1.1175   -0.9990    0.2925 O.3     1  LIG1      -0.5099999999999998
     14 H           0.2028    1.5393   -1.2546 H       1  LIG1          0.12
     15 H           0.9223    0.2930    1.4290 H       1  LIG1          0.12
     16 H          -1.2722    1.5462    1.4168 H       1  LIG1       0.16000000000000003
     17 H           0.2938   -1.0075   -1.2602 H       1  LIG1       0.15000000000000002
     18 H          -2.8547   -0.0062    0.3916 H       1  LIG1       0.17000000000000004
     19 H           1.7677    2.5125    0.2548 H       1  LIG1       0.43000000000000005
     20 H           2.5745   -0.5690   -0.0822 H       1  LIG1       0.42000000000000004
     21 H          -2.3062    2.2284   -1.0767 H       1  LIG1       0.42000000000000004
     22 H          -1.3386   -0.0333   -1.9594 H       1  LIG1       0.43999999999999995
@<TRIPOS>BOND
     1    22    12    1
     2    12     6    1
     3    17     4    1
     4    14     1    1
     5    21     9    1
     6     9     3    1
     7     8    20    1
     8     8     2    1
     9     4    13    1
    10     4     2    1
    11     4     5    1
    12     1     2    1
    13     1     3    1
    14     1     7    1
    15     6    13    1
    16     6     3    1
    17     6    18    1
    18    10     5   ar
    19    19     7    1
    20     2    15    1
    21     3    16    1
    22     5    11   ar
