@<TRIPOS>MOLECULE
AEMRFAOFKBGASW-UHFFFAOYSA-M	6044270	-303.7994753365137
 8 7 0 0 0
SMALL
MULLIKEN NwChem

@<TRIPOS>ATOM
      1 C           0.4356    0.1598    0.9207 C.3     1  LIG1       -0.1299999999999999
      2 C          -0.0969    0.3468   -0.5424 C.2     1  LIG1       0.5099999999999998
      3 O           0.1434   -1.1477    1.3841 O.3     1  LIG1      -0.6999999999999993
      4 O          -0.6680   -0.6930   -0.9950 O.co2   1  LIG1      -0.6699999999999999
      5 O           0.0940    1.4566   -1.0790 O.co2   1  LIG1      -0.6600000000000001
      6 H          -0.0269    0.9280    1.5660 H       1  LIG1          0.13
      7 H           1.5229    0.3553    0.9271 H       1  LIG1          0.13
      8 H          -0.3169   -1.4820    0.5662 H       1  LIG1           0.39
@<TRIPOS>BOND
     1     5     2   ar
     2     4     2   ar
     3     2     1    1
     4     8     3    1
     5     1     7    1
     6     1     3    1
     7     1     6    1
