@<TRIPOS>MOLECULE
AERBNCYCJBRYDG-KSZLIROESA-O	6044271	-989.795957829944
 62 61 0 0 0
SMALL
MULLIKEN NwChem

@<TRIPOS>ATOM
      1 C1         -3.6150   -7.5061   -3.5353 C.3     1  <1>       -0.45999999999999996
      2 C2         -3.5871   -6.9906   -2.0921 C.3     1  <1>       -0.2599999999999998
      3 C3         -2.1749   -6.6811   -1.5671 C.3     1  <1>       -0.2599999999999998
      4 C4         -1.3961   -5.6204   -2.3660 C.3     1  <1>       -0.2699999999999996
      5 C5         -2.1016   -4.2595   -2.5010 C.3     1  <1>       -0.2699999999999996
      6 C6         -2.4761   -3.5847   -1.1698 C.3     1  <1>       -0.2699999999999996
      7 C7         -1.2991   -3.3432   -0.2084 C.3     1  <1>       -0.2699999999999996
      8 C8         -0.1453   -2.5068   -0.7889 C.3     1  <1>       -0.2699999999999996
      9 C9         -0.5493   -1.1202   -1.3200 C.3     1  <1>       -0.2699999999999996
     10 C10        -1.2576   -0.2122   -0.2992 C.3     1  <1>       -0.2699999999999996
     11 C11        -0.4765    0.0448    1.0013 C.3     1  <1>       -0.2699999999999996
     12 C12         0.9275    0.6449    0.8013 C.3     1  <1>       -0.29000000000000004
     13 C13         0.9602    1.9680    0.0105 C.3     1  <1>       -0.33000000000000007
     14 C14         0.0929    3.1310    0.5374 C.3     1  <1>       -0.2999999999999998
     15 C15         2.5131    5.4244    0.2779 C.3     1  <1>        -0.07000000000000028
     16 C16         2.2523    5.4131    1.7978 C.3     1  <1>       -0.040000000000000036
     17 C17         0.2819    3.6610    1.9771 C.3     1  <1>        0.08999999999999986
     18 C18         1.6890    4.1188    2.4300 C.3     1  <1>        0.08000000000000007
     19 N1          3.6256    5.6006    2.4287 N.4     1  <1>        -0.7199999999999998
     20 O1          3.4787    6.4280   -0.0273 O.3     1  <1>       -0.6600000000000001
     21 O2         -0.2200    2.7700    2.9592 O.3     1  <1>       -0.6600000000000001
     22 O3          2.7046    3.1122    2.3712 O.3     1  <1>       -0.6799999999999997
     23 H1         -3.2593   -6.7495   -4.2441 H       1  <1>        0.15000000000000002
     24 H2         -4.6309   -7.7858   -3.8357 H       1  <1>           0.14
     25 H3         -2.9771   -8.3916   -3.6485 H       1  <1>           0.14
     26 H4         -4.2188   -6.0954   -2.0115 H       1  <1>           0.14
     27 H5         -4.0448   -7.7399   -1.4328 H       1  <1>           0.13
     28 H6         -2.2482   -6.3668   -0.5170 H       1  <1>           0.14
     29 H7         -1.5875   -7.6100   -1.5627 H       1  <1>           0.13
     30 H8         -0.4142   -5.4798   -1.8935 H       1  <1>           0.14
     31 H9         -1.1865   -6.0027   -3.3731 H       1  <1>           0.13
     32 H10        -1.4572   -3.5880   -3.0850 H       1  <1>           0.13
     33 H11        -3.0161   -4.3809   -3.0958 H       1  <1>           0.13
     34 H12        -2.9733   -2.6298   -1.3893 H       1  <1>           0.13
     35 H13        -3.2258   -4.1944   -0.6499 H       1  <1>           0.14
     36 H14        -1.6833   -2.8602    0.7006 H       1  <1>           0.13
     37 H15        -0.8927   -4.3080    0.1202 H       1  <1>           0.14
     38 H16         0.6294   -2.3953   -0.0172 H       1  <1>           0.13
     39 H17         0.3315   -3.0620   -1.6063 H       1  <1>           0.14
     40 H18         0.3491   -0.6167   -1.7054 H       1  <1>           0.14
     41 H19        -1.2107   -1.2410   -2.1867 H       1  <1>           0.14
     42 H20        -1.4979    0.7447   -0.7842 H       1  <1>           0.14
     43 H21        -2.2250   -0.6521   -0.0294 H       1  <1>           0.14
     44 H22        -1.0709    0.7010    1.6486 H       1  <1>           0.13
     45 H23        -0.3633   -0.8983    1.5490 H       1  <1>           0.14
     46 H24         1.4136    0.7701    1.7818 H       1  <1>           0.13
     47 H25         1.5569   -0.0766    0.2673 H       1  <1>        0.15000000000000002
     48 H26         2.0073    2.2923   -0.1276 H       1  <1>        0.16000000000000003
     49 H27         0.6212    1.7642   -1.0115 H       1  <1>        0.17000000000000004
     50 H28         0.1839    3.9719   -0.1616 H       1  <1>        0.17000000000000004
     51 H29        -0.9582    2.8284    0.4907 H       1  <1>        0.17000000000000004
     52 H30         2.9360    4.4667   -0.0406 H       1  <1>        0.18000000000000005
     53 H31         1.5724    5.5761   -0.2560 H       1  <1>        0.19999999999999996
     54 H32         1.6533    6.2819    2.0852 H       1  <1>        0.21999999999999997
     55 H33        -0.3580    4.5489    2.0688 H       1  <1>        0.17000000000000004
     56 H34         1.5705    4.3227    3.5011 H       1  <1>        0.18999999999999995
     57 H35         4.1741    6.2148    1.8008 H       1  <1>       0.43999999999999995
     58 H36         3.5881    5.9959    3.3727 H       1  <1>       0.43999999999999995
     59 H37         4.0515    4.6581    2.4824 H       1  <1>       0.43000000000000005
     60 H38         3.0417    7.2268   -0.3607 H       1  <1>        0.44999999999999996
     61 H39         0.3200    1.9646    2.9574 H       1  <1>        0.43000000000000005
     62 H40         2.6234    2.6111    1.5445 H       1  <1>        0.44999999999999996
@<TRIPOS>BOND
     1    23     1    1
     2    24     1    1
     3    25     1    1
     4     1     2    1
     5    31     4    1
     6    33     5    1
     7    32     5    1
     8     5     4    1
     9     5     6    1
    10     4    30    1
    11     4     3    1
    12    41     9    1
    13     2    26    1
    14     2     3    1
    15     2    27    1
    16    40     9    1
    17    39     8    1
    18     3    29    1
    19     3    28    1
    20    34     6    1
    21     9     8    1
    22     9    10    1
    23     6    35    1
    24     6     7    1
    25    49    13    1
    26     8     7    1
    27     8    38    1
    28    42    10    1
    29    60    20    1
    30    10    43    1
    31    10    11    1
    32    53    15    1
    33     7    37    1
    34     7    36    1
    35    50    14    1
    36    48    13    1
    37    52    15    1
    38    20    15    1
    39    13    14    1
    40    13    12    1
    41    47    12    1
    42    15    16    1
    43    51    14    1
    44    14    17    1
    45    12    11    1
    46    12    46    1
    47    11    45    1
    48    11    44    1
    49    62    22    1
    50    16    54    1
    51    16    19    1
    52    16    18    1
    53    57    19    1
    54    17    55    1
    55    17    18    1
    56    17    21    1
    57    22    18    1
    58    19    59    1
    59    19    58    1
    60    18    56    1
    61    61    21    1
