@<TRIPOS>MOLECULE
AEWHYWSPVRZHCT-NDZSKPAWSA-J	11070870	-4060.1264407092876
 91 93 0 0 0
SMALL
MULLIKEN NwChem

@<TRIPOS>ATOM
      1 C          10.7700   -2.2169    2.5268 C.3     1  LIG1      -0.45999999999999996
      2 C          10.4952   -2.0032   -0.0054 C.3     1  LIG1      -0.4800000000000004
      3 C           3.0323    0.0531   -2.9402 C.3     1  LIG1      -0.45999999999999996
      4 C           2.1654    2.2149   -1.9978 C.3     1  LIG1      -0.4800000000000004
      5 C           8.0925    1.6832    0.1385 C.3     1  LIG1       -0.3899999999999997
      6 C           6.5715    1.4047    0.2341 C.3     1  LIG1       -0.13999999999999968
      7 C          11.0169    2.0222    0.0570 C.3     1  LIG1       -0.15000000000000036
      8 C          11.5348    1.7133   -1.3571 C.3     1  LIG1       -0.34999999999999964
      9 C          -4.0061    1.1819    0.4066 C.3     1  LIG1       -0.08000000000000007
     10 C           3.1852    0.5051   -0.4718 C.3     1  LIG1       -0.05999999999999961
     11 C         -11.6387    0.7533    1.8226 C.ar    1  LIG1       0.16000000000000014
     12 C          -8.1945    2.4140   -0.2325 C.ar    1  LIG1       0.21999999999999975
     13 C          11.2363   -1.5124    1.2397 C.3     1  LIG1       -0.1200000000000001
     14 C          -5.0276    0.1943    0.9779 C.3     1  LIG1       0.1299999999999999
     15 C           9.0064    0.6989    0.8598 C.2     1  LIG1       0.5999999999999996
     16 C         -10.2383    2.4438    0.3225 C.ar    1  LIG1       0.1900000000000004
     17 C          -6.8277   -0.4814   -0.4763 C.3     1  LIG1       0.13999999999999968
     18 C          -5.4598   -0.9683    0.0603 C.3     1  LIG1           0.0
     19 C           4.6848    1.7553   -2.1242 C.3     1  LIG1       0.04999999999999982
     20 C         -11.5841    2.7089    0.6142 C.ar    1  LIG1       0.4500000000000002
     21 C          -9.7049    1.2591    0.8657 C.ar    1  LIG1       0.5300000000000002
     22 C           5.1285    2.8495   -1.0866 C.2     1  LIG1       0.46999999999999975
     23 C          -7.3515    0.2565    0.7717 C.3     1  LIG1       0.2599999999999998
     24 C          11.2604    0.0056    1.4593 C.2     1  LIG1       0.5899999999999999
     25 C           3.2571    1.1391   -1.8696 C.3     1  LIG1       0.08000000000000007
     26 N         -12.2239    3.8309    0.1164 N.pl3   1  LIG1      -0.7800000000000002
     27 N          10.3778    0.8628    0.7101 N.am    1  LIG1      -0.4800000000000004
     28 N           5.8731    2.6424   -0.0290 N.am    1  LIG1      -0.5899999999999999
     29 N         -12.2844    1.8533    1.3759 N.ar    1  LIG1        -0.54
     30 N         -10.3765    0.3801    1.6261 N.ar    1  LIG1      -0.5300000000000002
     31 N          -9.2737    3.1625   -0.3606 N.ar    1  LIG1      -0.5800000000000001
     32 N          -8.3851    1.2558    0.4859 N.ar    1  LIG1      -0.5099999999999998
     33 O           8.5654   -0.1854    1.5991 O.2     1  LIG1      -0.5700000000000003
     34 O          -7.7263   -1.4060   -0.9796 O.3     1  LIG1      -0.7300000000000004
     35 O           4.6875    2.4107   -3.3946 O.3     1  LIG1      -0.7100000000000009
     36 O           4.6682    3.9979   -1.4184 O.2     1  LIG1      -0.7200000000000006
     37 O          12.0353    0.4896    2.2666 O.2     1  LIG1      -0.5199999999999996
     38 O          -5.3539   -4.6167    1.2969 O.3     1  LIG1      -0.6600000000000001
     39 O          -6.5810   -3.7463   -0.8629 O.2     1  LIG1      -0.7200000000000006
     40 O          -4.0755   -3.4638   -0.6879 O.3     1  LIG1      -0.7400000000000002
     41 O          -1.9796   -1.7079    0.1034 O.3     1  LIG1      -0.7200000000000006
     42 O          -2.5702   -0.0435   -1.8609 O.2     1  LIG1      -0.6500000000000004
     43 O           0.4063   -1.5494    1.1473 O.3     1  LIG1      -0.7100000000000009
     44 O           1.0137    0.9510    1.6553 O.2     1  LIG1      -0.6099999999999994
     45 O          -2.6798    0.7205    0.6027 O.3     1  LIG1      -0.5700000000000003
     46 O           2.0124   -0.3562   -0.3572 O.3     1  LIG1      -0.5399999999999991
     47 O          -6.2413    0.9515    1.2942 O.3     1  LIG1      -0.5500000000000007
     48 O          -5.5991   -2.1193    0.8752 O.3     1  LIG1      -0.6199999999999992
     49 O          -0.4388    0.2650   -0.4200 O.3     1  LIG1      -0.6400000000000006
     50 P          -5.4574   -3.6458    0.1637 P.3     1  LIG1          1.08
     51 P          -2.0001   -0.3075   -0.5087 P.3     1  LIG1       1.2200000000000006
     52 P           0.7710   -0.0860    0.6243 P.3     1  LIG1       1.1999999999999993
     53 S          12.9287    0.5108   -1.4202 S.3     1  LIG1      -0.8200000000000003
     54 H          11.3564   -1.8685    3.3866 H       1  LIG1       0.15000000000000002
     55 H           9.7147   -1.9949    2.7048 H       1  LIG1       0.16000000000000003
     56 H          10.8976   -3.3039    2.4340 H       1  LIG1       0.15000000000000002
     57 H           9.4152   -1.8672    0.0946 H       1  LIG1       0.16000000000000003
     58 H          10.8652   -1.4644   -0.8855 H       1  LIG1       0.16000000000000003
     59 H          10.6933   -3.0757   -0.1443 H       1  LIG1          0.14
     60 H           3.1783    0.4952   -3.9310 H       1  LIG1       0.15000000000000002
     61 H           2.0239   -0.3657   -2.8697 H       1  LIG1       0.15000000000000002
     62 H           3.7514   -0.7707   -2.8215 H       1  LIG1          0.14
     63 H           2.1838    2.6386   -3.0072 H       1  LIG1          0.14
     64 H           2.3475    3.0306   -1.2923 H       1  LIG1          0.14
     65 H           1.1749    1.7811   -1.8178 H       1  LIG1       0.15000000000000002
     66 H           8.3963    1.7794   -0.9121 H       1  LIG1       0.18000000000000005
     67 H           8.2437    2.6807    0.5780 H       1  LIG1       0.18000000000000005
     68 H           6.3373    0.5442   -0.4197 H       1  LIG1          0.13
     69 H           6.3595    1.0600    1.2564 H       1  LIG1          0.12
     70 H          10.2964    2.8470    0.0409 H       1  LIG1       0.17000000000000004
     71 H          11.8550    2.3200    0.6934 H       1  LIG1       0.16000000000000003
     72 H          10.6801    1.3659   -1.9591 H       1  LIG1       0.15000000000000002
     73 H          11.8386    2.6835   -1.7862 H       1  LIG1          0.14
     74 H          -4.1985    1.3754   -0.6568 H       1  LIG1       0.17000000000000004
     75 H          -4.1007    2.1246    0.9599 H       1  LIG1       0.17000000000000004
     76 H           3.1676    1.2632    0.3152 H       1  LIG1       0.17000000000000004
     77 H           4.0425   -0.1544   -0.3007 H       1  LIG1       0.17000000000000004
     78 H         -12.2393    0.0854    2.4395 H       1  LIG1       0.17000000000000004
     79 H          -7.2133    2.6571   -0.6155 H       1  LIG1       0.21999999999999997
     80 H          12.3029   -1.7246    1.0989 H       1  LIG1       0.16000000000000003
     81 H          -4.6273   -0.2298    1.9036 H       1  LIG1       0.17000000000000004
     82 H          -6.6160    0.3043   -1.2291 H       1  LIG1       0.15000000000000002
     83 H          -4.7513   -1.1351   -0.7565 H       1  LIG1       0.18000000000000005
     84 H           5.4006    0.9233   -2.1768 H       1  LIG1          0.12
     85 H          -7.7897   -0.4605    1.4759 H       1  LIG1       0.17000000000000004
     86 H         -11.5965    4.5790   -0.1515 H       1  LIG1          0.37
     87 H         -13.0232    4.1203    0.6650 H       1  LIG1          0.37
     88 H          -7.3200   -2.3392   -0.9300 H       1  LIG1       0.44999999999999996
     89 H           4.5600    3.3414   -3.0618 H       1  LIG1           0.4
     90 H          -3.3600   -2.9639   -0.2272 H       1  LIG1          0.47
     91 H          -0.5204   -1.8100    0.8318 H       1  LIG1           0.49
@<TRIPOS>BOND
     1    60     3    1
     2    35    89    1
     3    35    19    1
     4    63     4    1
     5     3    61    1
     6     3    62    1
     7     3    25    1
     8    84    19    1
     9    19    25    1
    10    19    22    1
    11     4    25    1
    12     4    65    1
    13     4    64    1
    14    72     8    1
    15    25    10    1
    16    42    51    2
    17    73     8    1
    18    53     8    1
    19    36    22    2
    20     8     7    1
    21    82    17    1
    22    22    28   am
    23    34    88    1
    24    34    17    1
    25    66     5    1
    26    58     2    1
    27    39    50    2
    28    83    18    1
    29    40    90    1
    30    40    50    1
    31    74     9    1
    32    79    12    1
    33    51    49    1
    34    51    41    1
    35    51    45    1
    36    17    18    1
    37    17    23    1
    38    10    46    1
    39    10    77    1
    40    10    76    1
    41    49    52    1
    42    68     6    1
    43    31    12   ar
    44    31    16   ar
    45    46    52    1
    46    12    32   ar
    47    86    26    1
    48    59     2    1
    49    28     6    1
    50     2    57    1
    51     2    13    1
    52    70     7    1
    53     7    71    1
    54     7    27    1
    55    18    48    1
    56    18    14    1
    57    26    20    1
    58    26    87    1
    59     5     6    1
    60     5    67    1
    61     5    15    1
    62    50    48    1
    63    50    38    1
    64     6    69    1
    65    16    20   ar
    66    16    21   ar
    67     9    45    1
    68     9    75    1
    69     9    14    1
    70    32    23    1
    71    32    21   ar
    72    20    29   ar
    73    52    43    1
    74    52    44    2
    75    27    15   am
    76    27    24   am
    77    23    47    1
    78    23    85    1
    79    91    43    1
    80    15    33    2
    81    21    30   ar
    82    14    47    1
    83    14    81    1
    84    80    13    1
    85    13    24    1
    86    13     1    1
    87    29    11   ar
    88    24    37    2
    89    30    11   ar
    90    11    78    1
    91    56     1    1
    92     1    55    1
    93     1    54    1
