@<TRIPOS>MOLECULE
AFKYGJZZMYXBLV-HWKANZROSA-M	6044273	-991.0105641868038
 13 13 0 0 0
SMALL
MULLIKEN NwChem

@<TRIPOS>ATOM
      1 C           1.7092   -0.7011   -0.4494 C.2     1  LIG1      -0.13999999999999968
      2 C           1.7012   -2.0583   -0.4305 C.3     1  LIG1       -0.21999999999999975
      3 C           0.3746   -0.2397   -0.1963 C.2     1  LIG1       0.41000000000000014
      4 C           0.3322   -2.5006   -0.1586 C.2     1  LIG1       0.5899999999999999
      5 C          -0.1550    1.0049   -0.1079 C.3     1  LIG1         -0.25
      6 C          -1.6299    1.3914    0.1789 C.2     1  LIG1       0.5099999999999998
      7 CL          0.9545    2.3642   -0.3411 Cl      1  LIG1      -0.019999999999999574
      8 O          -0.1430   -3.6134   -0.0513 O.2     1  LIG1      -0.5399999999999991
      9 O          -1.8624    1.5753    1.3869 O.co2   1  LIG1      -0.6099999999999994
     10 O          -2.3254    1.4732   -0.8491 O.co2   1  LIG1      -0.6099999999999994
     11 O          -0.4433   -1.3536   -0.0229 O.3     1  LIG1      -0.5299999999999994
     12 H           2.5460   -0.0368   -0.6204 H       1  LIG1       0.20999999999999996
     13 H           2.5218   -2.7464   -0.5813 H       1  LIG1       0.19999999999999996
@<TRIPOS>BOND
     1    10     6   ar
     2    12     1    1
     3    13     2    1
     4     1     2    1
     5     1     3    2
     6     2     4    1
     7     7     5    1
     8     3     5    1
     9     3    11    1
    10     4     8    2
    11     4    11    1
    12     5     6    1
    13     6     9   ar
