@<TRIPOS>MOLECULE
AFMMIIQKXQNEDN-NSDZGHCESA-J	11152826	-4333.932250965745
 110 112 0 0 0
SMALL
MULLIKEN NwChem

@<TRIPOS>ATOM
      1 C          18.1278    2.6502   -1.0902 C.3     1  LIG1      -0.45999999999999996
      2 C           0.7682    1.0830    0.7639 C.3     1  LIG1      -0.4900000000000002
      3 C           0.7694    1.7932   -1.6496 C.3     1  LIG1      -0.4800000000000004
      4 C          16.8806    3.0444   -0.2878 C.3     1  LIG1        -0.25
      5 C          15.8941    1.8898   -0.0497 C.3     1  LIG1      -0.2599999999999998
      6 C          16.4318    0.7707    0.8549 C.3     1  LIG1      -0.2599999999999998
      7 C          15.4463   -0.3944    1.0448 C.3     1  LIG1      -0.2599999999999998
      8 C          14.1752   -0.0388    1.8433 C.3     1  LIG1      -0.3099999999999996
      9 C          13.2335   -1.2120    1.9716 C.2     1  LIG1      -0.13999999999999968
     10 C          12.2308   -1.4989    1.1279 C.2     1  LIG1      -0.11000000000000032
     11 C          11.8080   -0.7309   -0.0882 C.3     1  LIG1      -0.33000000000000007
     12 C          10.2860   -0.5145   -0.1542 C.3     1  LIG1       -0.3200000000000003
     13 C           6.3229   -0.5452   -2.2781 C.3     1  LIG1       -0.3799999999999999
     14 C           5.0379   -0.8576   -1.4812 C.3     1  LIG1       -0.13999999999999968
     15 C           8.9050   -0.0267   -3.5709 C.3     1  LIG1       -0.16000000000000014
     16 C           9.3468   -1.4132   -4.0793 C.3     1  LIG1       -0.34999999999999964
     17 C          -5.9567    0.1716    1.7627 C.3     1  LIG1       -0.05999999999999961
     18 C          -0.1804   -0.4512   -0.9893 C.3     1  LIG1       -0.05999999999999961
     19 C         -12.4762    1.8493   -1.7078 C.ar    1  LIG1       0.16000000000000014
     20 C          -8.5730   -0.0634   -1.4074 C.ar    1  LIG1       0.20000000000000018
     21 C          -7.2843    0.6936    2.3012 C.3     1  LIG1       0.08999999999999986
     22 C           7.5647   -0.2912   -1.4316 C.2     1  LIG1       0.6100000000000003
     23 C           9.9391    0.3236   -1.3774 C.2     1  LIG1       0.6100000000000003
     24 C         -10.2517    0.6376   -2.5111 C.ar    1  LIG1       0.1900000000000004
     25 C          -9.0830   -0.7387    1.6740 C.3     1  LIG1       0.08999999999999986
     26 C          -8.2491   -0.3403    2.9113 C.3     1  LIG1       0.05999999999999961
     27 C           2.3255   -0.0288   -0.8636 C.3     1  LIG1       0.07000000000000028
     28 C         -11.2469    0.9716   -3.4393 C.ar    1  LIG1       0.4500000000000002
     29 C         -10.5093    0.9769   -1.1727 C.ar    1  LIG1          0.54
     30 C           2.7421   -0.5831   -2.2787 C.2     1  LIG1       0.4299999999999997
     31 C          -9.2153    0.6214    0.9723 C.3     1  LIG1       0.2699999999999996
     32 C           0.9103    0.5957   -0.6930 C.3     1  LIG1       0.08000000000000007
     33 N         -11.0841    0.7181   -4.7879 N.pl3   1  LIG1      -0.7800000000000002
     34 N           8.7526    0.0100   -2.1045 N.am    1  LIG1      -0.4800000000000004
     35 N           3.9690   -1.0737   -2.4362 N.am    1  LIG1      -0.6200000000000001
     36 N         -12.3750    1.5751   -3.0252 N.ar    1  LIG1        -0.54
     37 N         -11.6136    1.5966   -0.7244 N.ar    1  LIG1        -0.54
     38 N          -9.0404   -0.0119   -2.6393 N.ar    1  LIG1      -0.5700000000000003
     39 N          -9.4184    0.5195   -0.4738 N.ar    1  LIG1      -0.5199999999999996
     40 O           7.5233   -0.2777   -0.2020 O.2     1  LIG1      -0.5700000000000003
     41 O          10.6477    1.2563   -1.7259 O.2     1  LIG1      -0.5299999999999994
     42 O         -10.3533   -1.3141    1.8978 O.3     1  LIG1      -0.7100000000000009
     43 O           2.4935   -1.0882    0.1078 O.3     1  LIG1      -0.6999999999999993
     44 O           1.8647   -0.6082   -3.1854 O.2     1  LIG1      -0.6799999999999997
     45 O         -10.1299    0.0301    6.2141 O.3     1  LIG1      -0.6600000000000001
     46 O         -11.5393    0.1568    4.0777 O.3     1  LIG1      -0.7400000000000002
     47 O         -10.0641   -1.9315    4.4323 O.2     1  LIG1      -0.7400000000000002
     48 O          -5.6195   -2.4176   -1.0611 O.2     1  LIG1      -0.6500000000000004
     49 O          -4.3525   -2.4121    1.2803 O.3     1  LIG1      -0.7300000000000004
     50 O          -2.0456   -1.2616    1.1912 O.3     1  LIG1      -0.7300000000000004
     51 O          -2.8386    1.2388    1.0389 O.2     1  LIG1      -0.6199999999999992
     52 O          -6.2051   -0.7186    0.6774 O.3     1  LIG1      -0.5700000000000003
     53 O          -1.5186    0.1353   -0.8878 O.3     1  LIG1      -0.5500000000000007
     54 O          -8.0284    1.3376    1.2307 O.3     1  LIG1      -0.5299999999999994
     55 O          -9.0139    0.3493    3.8981 O.3     1  LIG1      -0.6199999999999992
     56 O          -3.8889   -0.5959   -0.4575 O.3     1  LIG1      -0.6600000000000001
     57 P         -10.1823   -0.4553    4.8047 P.3     1  LIG1       1.1199999999999992
     58 P          -5.0164   -1.7147    0.1035 P.3     1  LIG1       1.2300000000000004
     59 P          -2.5633   -0.0308    0.3105 P.3     1  LIG1       1.2100000000000009
     60 S          11.0104   -1.9668   -3.5139 S.3     1  LIG1      -0.8099999999999987
     61 H          17.8448    2.1996   -2.0497 H       1  LIG1          0.14
     62 H          18.7593    3.5224   -1.3025 H       1  LIG1          0.14
     63 H          18.7426    1.9199   -0.5520 H       1  LIG1       0.15000000000000002
     64 H           0.8653    0.2455    1.4614 H       1  LIG1       0.15000000000000002
     65 H          -0.2038    1.5600    0.9273 H       1  LIG1       0.16000000000000003
     66 H           1.5547    1.8136    1.0003 H       1  LIG1          0.14
     67 H          -0.2136    2.2604   -1.5246 H       1  LIG1          0.14
     68 H           1.5389    2.5477   -1.4295 H       1  LIG1          0.14
     69 H           0.8937    1.4551   -2.6807 H       1  LIG1       0.16000000000000003
     70 H          16.3581    3.8515   -0.8195 H       1  LIG1          0.13
     71 H          17.1892    3.4657    0.6813 H       1  LIG1          0.13
     72 H          15.5989    1.4588   -1.0169 H       1  LIG1          0.13
     73 H          14.9752    2.2995    0.3859 H       1  LIG1          0.14
     74 H          17.3659    0.3758    0.4298 H       1  LIG1          0.14
     75 H          16.6968    1.1953    1.8373 H       1  LIG1          0.13
     76 H          15.9601   -1.2257    1.5503 H       1  LIG1          0.13
     77 H          15.1404   -0.7772    0.0623 H       1  LIG1          0.14
     78 H          14.4746    0.3217    2.8409 H       1  LIG1          0.14
     79 H          13.6602    0.7938    1.3528 H       1  LIG1       0.16000000000000003
     80 H          13.4424   -1.9015    2.7926 H       1  LIG1          0.13
     81 H          11.6521   -2.4048    1.3219 H       1  LIG1          0.13
     82 H          12.3129    0.2371   -0.1605 H       1  LIG1       0.16000000000000003
     83 H          12.0691   -1.2919   -1.0001 H       1  LIG1       0.16000000000000003
     84 H           9.7611   -1.4700   -0.1980 H       1  LIG1       0.16000000000000003
     85 H           9.9207    0.0120    0.7357 H       1  LIG1       0.18000000000000005
     86 H           6.5062   -1.3577   -2.9916 H       1  LIG1       0.18000000000000005
     87 H           6.1277    0.3408   -2.8989 H       1  LIG1       0.18000000000000005
     88 H           4.8875   -0.0462   -0.7487 H       1  LIG1          0.12
     89 H           5.2521   -1.7521   -0.8641 H       1  LIG1          0.12
     90 H           9.6626    0.7181   -3.8235 H       1  LIG1       0.16000000000000003
     91 H           7.9593    0.2790   -4.0312 H       1  LIG1       0.17000000000000004
     92 H           8.5748   -2.1399   -3.7854 H       1  LIG1       0.15000000000000002
     93 H           9.3119   -1.3580   -5.1804 H       1  LIG1          0.14
     94 H          -5.3362    1.0073    1.4202 H       1  LIG1       0.18000000000000005
     95 H          -5.4138   -0.3456    2.5650 H       1  LIG1       0.17000000000000004
     96 H          -0.0986   -1.2927   -0.2987 H       1  LIG1       0.16000000000000003
     97 H          -0.0752   -0.7937   -2.0176 H       1  LIG1       0.17000000000000004
     98 H         -13.4013    2.3431   -1.4105 H       1  LIG1       0.17000000000000004
     99 H          -7.6311   -0.5095   -1.1071 H       1  LIG1       0.22999999999999998
    100 H          -7.0724    1.4541    3.0615 H       1  LIG1       0.18000000000000005
    101 H          -8.4549   -1.3948    1.0581 H       1  LIG1       0.18000000000000005
    102 H          -7.7315   -1.2015    3.3457 H       1  LIG1       0.18000000000000005
    103 H           3.0294    0.7806   -0.5950 H       1  LIG1          0.13
    104 H         -10.0947    1.1484    1.3596 H       1  LIG1       0.18000000000000005
    105 H         -10.3880    0.0108   -4.9921 H       1  LIG1          0.37
    106 H         -11.9518    0.6315   -5.3011 H       1  LIG1          0.37
    107 H         -11.4807   -0.1335    3.1448 H       1  LIG1       0.43999999999999995
    108 H           2.9316   -1.7961   -0.3903 H       1  LIG1       0.42000000000000004
    109 H         -10.2786   -1.8107    2.7709 H       1  LIG1       0.43999999999999995
    110 H          -2.8497   -1.8662    1.3624 H       1  LIG1           0.48
@<TRIPOS>BOND
     1   106    33    1
     2    93    16    1
     3   105    33    1
     4    33    28    1
     5    16    92    1
     6    16    15    1
     7    16    60    1
     8    91    15    1
     9    90    15    1
    10    15    34    1
    11    28    36   ar
    12    28    24   ar
    13    44    30    2
    14    36    19   ar
    15    86    13    1
    16    87    13    1
    17    69     3    1
    18    38    24   ar
    19    38    20   ar
    20    24    29   ar
    21    35    30   am
    22    35    14    1
    23    30    27    1
    24    13    14    1
    25    13    22    1
    26    34    22   am
    27    34    23   am
    28    61     1    1
    29    97    18    1
    30    41    23    2
    31    19    98    1
    32    19    37   ar
    33     3    67    1
    34     3    68    1
    35     3    32    1
    36    14    89    1
    37    14    88    1
    38    22    40    2
    39    20    99    1
    40    20    39   ar
    41    23    12    1
    42    62     1    1
    43    29    37   ar
    44    29    39   ar
    45     1    63    1
    46     1     4    1
    47    48    58    2
    48    72     5    1
    49    83    11    1
    50    18    53    1
    51    18    32    1
    52    18    96    1
    53    53    59    1
    54    27    32    1
    55    27   103    1
    56    27    43    1
    57    70     4    1
    58    32     2    1
    59    39    31    1
    60    56    58    1
    61    56    59    1
    62   108    43    1
    63     4     5    1
    64     4    71    1
    65    84    12    1
    66    82    11    1
    67    12    11    1
    68    12    85    1
    69    11    10    1
    70     5    73    1
    71     5     6    1
    72    77     7    1
    73    58    52    1
    74    58    49    1
    75    59    51    2
    76    59    50    1
    77    74     6    1
    78    52    17    1
    79     2    65    1
    80     2    66    1
    81     2    64    1
    82     6     7    1
    83     6    75    1
    84    31    54    1
    85    31   104    1
    86    31    25    1
    87     7    76    1
    88     7     8    1
    89   101    25    1
    90    10    81    1
    91    10     9    2
    92    50   110    1
    93    54    21    1
    94    79     8    1
    95    94    17    1
    96    25    42    1
    97    25    26    1
    98    17    21    1
    99    17    95    1
   100     8     9    1
   101     8    78    1
   102    42   109    1
   103     9    80    1
   104    21    26    1
   105    21   100    1
   106    26   102    1
   107    26    55    1
   108   107    46    1
   109    55    57    1
   110    46    57    1
   111    47    57    2
   112    57    45    1
