@<TRIPOS>MOLECULE
AFSHUZFNMVJNKX-LLWMBOQKSA-N	6044276	-1904.721119554794
 116 115 0 0 0
SMALL
MULLIKEN NwChem

@<TRIPOS>ATOM
      1 C           1.3285   -7.8160  -10.3645 C.3     1  LIG1      -0.45999999999999996
      2 C         -13.9124    1.2263    2.5351 C.3     1  LIG1      -0.45999999999999996
      3 C           0.8544   -7.6316   -8.9186 C.3     1  LIG1      -0.2599999999999998
      4 C         -13.0253    0.8959    3.7409 C.3     1  LIG1      -0.2599999999999998
      5 C           1.9113   -8.0017   -7.8642 C.3     1  LIG1      -0.2599999999999998
      6 C         -11.7727    0.0774    3.3858 C.3     1  LIG1      -0.2599999999999998
      7 C           3.2316   -7.2151   -7.9547 C.3     1  LIG1      -0.2699999999999996
      8 C         -10.8138    0.7456    2.3835 C.3     1  LIG1      -0.2699999999999996
      9 C           3.0836   -5.6852   -7.8878 C.3     1  LIG1      -0.2699999999999996
     10 C         -10.2959    2.1317    2.8050 C.3     1  LIG1      -0.2699999999999996
     11 C           2.3745   -5.1520   -6.6312 C.3     1  LIG1      -0.2699999999999996
     12 C          -9.5691    2.1722    4.1609 C.3     1  LIG1      -0.2699999999999996
     13 C           3.0228   -5.5534   -5.2961 C.3     1  LIG1      -0.2599999999999998
     14 C          -8.3721    1.2135    4.2867 C.3     1  LIG1      -0.2599999999999998
     15 C           4.5021   -5.1302   -5.1414 C.3     1  LIG1      -0.3099999999999996
     16 C          -7.2694    1.4013    3.2207 C.3     1  LIG1      -0.3200000000000003
     17 C           4.7199   -3.6524   -5.3524 C.2     1  LIG1      -0.1299999999999999
     18 C          -6.6622    2.7796    3.2278 C.2     1  LIG1      -0.1299999999999999
     19 C           4.7635   -2.7047   -4.4080 C.2     1  LIG1      -0.1200000000000001
     20 C          -5.4102    3.1133    3.5664 C.2     1  LIG1      -0.1299999999999999
     21 C           4.6402   -2.9046   -2.9197 C.3     1  LIG1      -0.3200000000000003
     22 C          -4.2970    2.1808    3.9692 C.3     1  LIG1      -0.3200000000000003
     23 C           5.9594   -2.6644   -2.1513 C.3     1  LIG1      -0.2599999999999998
     24 C          -3.2722    1.9405    2.8370 C.3     1  LIG1      -0.2599999999999998
     25 C           6.5875   -1.2746   -2.3541 C.3     1  LIG1      -0.2699999999999996
     26 C          -2.5688    3.2072    2.3193 C.3     1  LIG1      -0.2699999999999996
     27 C           5.6619   -0.0894   -2.0292 C.3     1  LIG1      -0.28000000000000025
     28 C          -1.7914    4.0007    3.3838 C.3     1  LIG1      -0.2699999999999996
     29 C           5.0610   -0.0907   -0.6128 C.3     1  LIG1      -0.28000000000000025
     30 C          -0.7306    3.1936    4.1522 C.3     1  LIG1      -0.2699999999999996
     31 C           6.0876   -0.0929    0.5351 C.3     1  LIG1      -0.29000000000000004
     32 C           0.3082    2.4825    3.2716 C.3     1  LIG1      -0.29000000000000004
     33 C           7.0188    1.1385    0.6131 C.3     1  LIG1       -0.3600000000000003
     34 C           1.1104    3.4025    2.3181 C.3     1  LIG1       -0.3600000000000003
     35 C           3.8542    1.8743    3.3350 C.3     1  LIG1       -0.09999999999999964
     36 C           4.4451    3.6670    1.5602 C.3     1  LIG1       -0.09999999999999964
     37 C           4.1126    3.3654    3.0341 C.3     1  LIG1       0.08999999999999986
     38 C           6.4303    2.3519    1.3010 C.2     1  LIG1       0.6299999999999999
     39 C           1.8392    4.4865    3.0844 C.2     1  LIG1       0.5999999999999996
     40 O           3.1313    1.1315    2.3644 O.3     1  LIG1      -0.6600000000000001
     41 O           7.0051    3.0562    2.0994 O.2     1  LIG1      -0.5099999999999998
     42 O           1.2911    5.5071    3.4311 O.2     1  LIG1         -0.5
     43 O           5.1380    2.5696    0.9234 O.3     1  LIG1      -0.47000000000000064
     44 O           3.1344    4.3120    3.5061 O.3     1  LIG1      -0.4900000000000002
     45 H           2.1555   -7.1389  -10.6074 H       1  LIG1       0.15000000000000002
     46 H           0.5188   -7.6165  -11.0759 H       1  LIG1          0.14
     47 H           1.6798   -8.8415  -10.5359 H       1  LIG1          0.14
     48 H         -14.2144    0.3121    2.0083 H       1  LIG1          0.14
     49 H         -14.8236    1.7504    2.8453 H       1  LIG1          0.14
     50 H         -13.3925    1.8669    1.8135 H       1  LIG1       0.15000000000000002
     51 H           0.5309   -6.5925   -8.7713 H       1  LIG1          0.14
     52 H          -0.0368   -8.2504   -8.7483 H       1  LIG1          0.13
     53 H         -13.6134    0.3306    4.4766 H       1  LIG1          0.13
     54 H         -12.7305    1.8262    4.2440 H       1  LIG1          0.14
     55 H           1.4756   -7.8688   -6.8648 H       1  LIG1          0.14
     56 H           2.1391   -9.0737   -7.9530 H       1  LIG1          0.13
     57 H         -12.0888   -0.8910    2.9714 H       1  LIG1          0.13
     58 H         -11.2279   -0.1545    4.3105 H       1  LIG1          0.14
     59 H           3.8937   -7.5541   -7.1468 H       1  LIG1          0.14
     60 H           3.7488   -7.4749   -8.8877 H       1  LIG1          0.13
     61 H         -11.3105    0.8393    1.4089 H       1  LIG1          0.13
     62 H          -9.9626    0.0720    2.2169 H       1  LIG1          0.14
     63 H           4.0830   -5.2355   -7.9622 H       1  LIG1          0.14
     64 H           2.5364   -5.3326   -8.7721 H       1  LIG1          0.14
     65 H         -11.1350    2.8397    2.8378 H       1  LIG1          0.14
     66 H          -9.6259    2.5068    2.0194 H       1  LIG1          0.14
     67 H           2.3331   -4.0566   -6.6907 H       1  LIG1          0.13
     68 H           1.3311   -5.4935   -6.6284 H       1  LIG1          0.14
     69 H         -10.2824    1.9452    4.9648 H       1  LIG1          0.14
     70 H          -9.2304    3.1997    4.3462 H       1  LIG1          0.13
     71 H           2.4473   -5.0991   -4.4789 H       1  LIG1          0.13
     72 H           2.9524   -6.6408   -5.1585 H       1  LIG1          0.14
     73 H          -8.7271    0.1752    4.2411 H       1  LIG1          0.14
     74 H          -7.9216    1.3423    5.2796 H       1  LIG1          0.13
     75 H           4.8493   -5.4343   -4.1474 H       1  LIG1       0.15000000000000002
     76 H           5.1161   -5.6880   -5.8608 H       1  LIG1       0.15000000000000002
     77 H          -7.6949    1.2031    2.2260 H       1  LIG1       0.15000000000000002
     78 H          -6.4991    0.6379    3.3750 H       1  LIG1       0.15000000000000002
     79 H           4.8132   -3.3356   -6.3915 H       1  LIG1          0.13
     80 H          -7.3379    3.5849    2.9376 H       1  LIG1          0.13
     81 H           4.9137   -1.6737   -4.7297 H       1  LIG1          0.14
     82 H          -5.1377    4.1681    3.5179 H       1  LIG1          0.14
     83 H           3.8700   -2.2214   -2.5338 H       1  LIG1       0.15000000000000002
     84 H           4.2831   -3.9152   -2.6937 H       1  LIG1       0.15000000000000002
     85 H          -4.6973    1.2122    4.2871 H       1  LIG1       0.15000000000000002
     86 H          -3.7785    2.5968    4.8438 H       1  LIG1       0.15000000000000002
     87 H           5.7737   -2.8335   -1.0818 H       1  LIG1          0.14
     88 H           6.6882   -3.4242   -2.4616 H       1  LIG1          0.13
     89 H          -3.7913    1.4575    1.9985 H       1  LIG1          0.13
     90 H          -2.5219    1.2217    3.1928 H       1  LIG1          0.14
     91 H           7.4982   -1.2111   -1.7434 H       1  LIG1          0.14
     92 H           6.9219   -1.1779   -3.3949 H       1  LIG1          0.13
     93 H          -3.3127    3.8703    1.8584 H       1  LIG1          0.13
     94 H          -1.8878    2.9165    1.5076 H       1  LIG1          0.14
     95 H           6.2143    0.8453   -2.1960 H       1  LIG1          0.14
     96 H           4.8328   -0.0668   -2.7483 H       1  LIG1          0.14
     97 H          -2.4959    4.4232    4.1129 H       1  LIG1          0.14
     98 H          -1.3035    4.8622    2.9129 H       1  LIG1          0.13
     99 H           4.4035    0.7807   -0.5220 H       1  LIG1       0.15000000000000002
    100 H           4.4210   -0.9738   -0.4920 H       1  LIG1       0.15000000000000002
    101 H          -1.2200    2.4317    4.7737 H       1  LIG1          0.14
    102 H          -0.2183    3.8720    4.8442 H       1  LIG1          0.14
    103 H           5.5592   -0.2072    1.4912 H       1  LIG1       0.15000000000000002
    104 H           6.7221   -0.9815    0.4427 H       1  LIG1       0.17000000000000004
    105 H          -0.1797    1.7249    2.6469 H       1  LIG1       0.16000000000000003
    106 H           1.0104    1.9319    3.9082 H       1  LIG1       0.16000000000000003
    107 H           7.9331    0.9034    1.1645 H       1  LIG1       0.18000000000000005
    108 H           7.3291    1.4448   -0.3943 H       1  LIG1       0.19999999999999996
    109 H           0.4264    3.9194    1.6393 H       1  LIG1       0.18000000000000005
    110 H           1.7804    2.7719    1.7367 H       1  LIG1       0.18000000000000005
    111 H           4.8374    1.4130    3.5127 H       1  LIG1       0.17000000000000004
    112 H           3.2920    1.8077    4.2704 H       1  LIG1       0.18999999999999995
    113 H           5.0457    4.5763    1.4899 H       1  LIG1       0.19999999999999996
    114 H           3.5355    3.7857    0.9719 H       1  LIG1       0.19999999999999996
    115 H           4.9849    3.6331    3.6344 H       1  LIG1       0.18999999999999995
    116 H           3.6721    1.1223    1.5581 H       1  LIG1       0.44999999999999996
@<TRIPOS>BOND
     1    46     1    1
     2    45     1    1
     3    47     1    1
     4     1     3    1
     5     3    51    1
     6     3    52    1
     7     3     5    1
     8    60     7    1
     9    64     9    1
    10    63     9    1
    11     7     9    1
    12     7     5    1
    13     7    59    1
    14    56     5    1
    15     9    11    1
    16     5    55    1
    17    67    11    1
    18    11    68    1
    19    11    13    1
    20    79    17    1
    21    76    15    1
    22    17    15    1
    23    17    19    2
    24    13    72    1
    25    13    15    1
    26    13    71    1
    27    15    75    1
    28    81    19    1
    29    19    21    1
    30    92    25    1
    31    21    84    1
    32    21    83    1
    33    21    23    1
    34    96    27    1
    35    88    23    1
    36    25    23    1
    37    25    27    1
    38    25    91    1
    39    95    27    1
    40    23    87    1
    41    27    29    1
    42    29    99    1
    43    29   100    1
    44    29    31    1
    45   108    33    1
    46   104    31    1
    47    31    33    1
    48    31   103    1
    49    33   107    1
    50    33    38    1
    51    43    38    1
    52    43    36    1
    53   114    36    1
    54    38    41    2
    55    61     8    1
    56   113    36    1
    57    94    26    1
    58   116    40    1
    59    36    37    1
    60   109    34    1
    61   110    34    1
    62    50     2    1
    63    93    26    1
    64    89    24    1
    65    48     2    1
    66    66    10    1
    67    62     8    1
    68    77    16    1
    69    34    39    1
    70    34    32    1
    71    26    24    1
    72    26    28    1
    73    40    35    1
    74     8    10    1
    75     8     6    1
    76     2    49    1
    77     2     4    1
    78   105    32    1
    79    10    65    1
    80    10    12    1
    81    24    90    1
    82    24    22    1
    83    98    28    1
    84    80    18    1
    85    57     6    1
    86    37    35    1
    87    37    44    1
    88    37   115    1
    89    39    42    2
    90    39    44    1
    91    16    18    1
    92    16    78    1
    93    16    14    1
    94    18    20    2
    95    32   106    1
    96    32    30    1
    97    35   111    1
    98    35   112    1
    99    28    97    1
   100    28    30    1
   101     6     4    1
   102     6    58    1
   103    82    20    1
   104    20    22    1
   105     4    54    1
   106     4    53    1
   107    22    85    1
   108    22    86    1
   109    30   101    1
   110    30   102    1
   111    12    14    1
   112    12    70    1
   113    12    69    1
   114    73    14    1
   115    14    74    1
