@<TRIPOS>MOLECULE
AGBQKNBQESQNJD-SSDOTTSWSA-M	6044277	-1259.4876622264255
 25 25 0 0 0
SMALL
MULLIKEN NwChem

@<TRIPOS>ATOM
      1 C          -0.8885   -2.1201    0.4129 C.3     1  LIG1      -0.2699999999999996
      2 C          -1.3892   -1.8538    1.8552 C.3     1  LIG1      -0.2699999999999996
      3 C          -1.0170   -0.8724   -0.4917 C.3     1  LIG1      -0.2599999999999998
      4 C          -0.2426   -1.5062    2.8286 C.3     1  LIG1       -0.33000000000000007
      5 C           1.4048   -0.5019   -1.2875 C.3     1  LIG1      -0.29000000000000004
      6 C           1.4926    0.9865   -0.9300 C.3     1  LIG1       -0.4299999999999997
      7 C          -0.0351   -0.8838   -1.6714 C.3     1  LIG1       -0.2699999999999996
      8 C           0.7107   -0.4458    2.1972 C.2     1  LIG1       0.5599999999999996
      9 O           0.2257    0.7125    2.0688 O.co2   1  LIG1      -0.6600000000000001
     10 O           1.8255   -0.8766    1.7973 O.co2   1  LIG1      -0.6600000000000001
     11 S           0.4486    1.9807   -2.1244 S.3     1  LIG1      -0.08999999999999986
     12 S          -0.5048    0.2973   -3.0371 S.3     1  LIG1      -0.07000000000000028
     13 H          -1.4443   -2.9507   -0.0481 H       1  LIG1          0.13
     14 H           0.1600   -2.4350    0.4686 H       1  LIG1          0.14
     15 H          -2.1020   -1.0189    1.8375 H       1  LIG1          0.13
     16 H          -1.9399   -2.7289    2.2325 H       1  LIG1          0.13
     17 H          -2.0439   -0.8116   -0.8733 H       1  LIG1          0.14
     18 H          -0.8462    0.0247    0.1100 H       1  LIG1       0.16000000000000003
     19 H          -0.6697   -1.1220    3.7654 H       1  LIG1          0.12
     20 H           0.3345   -2.4120    3.0541 H       1  LIG1       0.10999999999999999
     21 H           2.0709   -0.7329   -2.1272 H       1  LIG1       0.16000000000000003
     22 H           1.7296   -1.0471   -0.3930 H       1  LIG1       0.19999999999999996
     23 H           1.1258    1.1648    0.0873 H       1  LIG1       0.20999999999999996
     24 H           2.5231    1.3433   -1.0170 H       1  LIG1       0.18999999999999995
     25 H          -0.0435   -1.8658   -2.1651 H       1  LIG1       0.19999999999999996
@<TRIPOS>BOND
     1    12    11    1
     2    12     7    1
     3    25     7    1
     4    21     5    1
     5    11     6    1
     6     7     5    1
     7     7     3    1
     8     5     6    1
     9     5    22    1
    10    24     6    1
    11     6    23    1
    12    17     3    1
    13     3    18    1
    14     3     1    1
    15    13     1    1
    16     1    14    1
    17     1     2    1
    18    10     8   ar
    19    15     2    1
    20     2    16    1
    21     2     4    1
    22     9     8   ar
    23     8     4    1
    24     4    20    1
    25     4    19    1
