@<TRIPOS>MOLECULE
AGPKZVBTJJNPAG-WHFBIAKZSA-N	6044278	-441.5387272733342
 22 21 0 0 0
SMALL
MULLIKEN NwChem

@<TRIPOS>ATOM
      1 CD1         0.2847    1.6003    2.9247 C.3     1  ILE1      -0.45999999999999996
      2 CG2        -0.2160    1.8113   -0.2042 C.3     1  ILE1      -0.4800000000000004
      3 CG1        -0.4083    0.5756    2.0198 C.3     1  ILE1        -0.25
      4 CB          0.1384    0.5384    0.5794 C.3     1  ILE1      -0.07000000000000028
      5 CA         -0.3638   -0.7461   -0.1391 C.3     1  ILE1       -0.04999999999999982
      6 C           0.0730   -0.7244   -1.6020 C.2     1  ILE1       0.5800000000000001
      7 N           0.1446   -1.9376    0.5455 N.3     1  ILE1        -0.75
      8 OXT         1.1794   -1.0392   -1.9880 O.2     1  ILE1      -0.5199999999999996
      9 O          -0.9043   -0.3052   -2.4418 O.3     1  ILE1      -0.5800000000000001
     10 HD11        1.3648    1.4135    2.9724 H       1  ILE1       0.15000000000000002
     11 HD12       -0.1070    1.5422    3.9466 H       1  ILE1       0.15000000000000002
     12 HD13        0.1403    2.6296    2.5775 H       1  ILE1       0.15000000000000002
     13 HG21        0.1157    2.7036    0.3348 H       1  ILE1       0.16000000000000003
     14 HG22        0.2567    1.8339   -1.1916 H       1  ILE1       0.16000000000000003
     15 HG23       -1.3001    1.8891   -0.3518 H       1  ILE1       0.15000000000000002
     16 HG11       -0.2982   -0.4240    2.4515 H       1  ILE1          0.14
     17 HG12       -1.4876    0.7864    1.9802 H       1  ILE1          0.13
     18 HB          1.2354    0.4549    0.6255 H       1  ILE1          0.13
     19 HA         -1.4590   -0.7593   -0.1036 H       1  ILE1       0.17000000000000004
     20 H1         -0.3037   -2.7701    0.1654 H       1  ILE1       0.32999999999999996
     21 H2          1.1358   -2.0289    0.3197 H       1  ILE1       0.31999999999999995
     22 H          -0.5155   -0.3001   -3.3379 H       1  ILE1       0.43999999999999995
@<TRIPOS>BOND
     1    22     9    1
     2     9     6    1
     3     8     6    2
     4     6     5    1
     5    14     2    1
     6    15     2    1
     7     2    13    1
     8     2     4    1
     9     5    19    1
    10     5     7    1
    11     5     4    1
    12    20     7    1
    13    21     7    1
    14     4    18    1
    15     4     3    1
    16    17     3    1
    17     3    16    1
    18     3     1    1
    19    12     1    1
    20     1    10    1
    21     1    11    1
