@<TRIPOS>MOLECULE
AGQJQCFEPUVXNK-UHFFFAOYSA-K	11152824	-1607.461520293207
 26 26 0 0 0
SMALL
MULLIKEN NwChem

@<TRIPOS>ATOM
      1 C          -6.0616    1.4306   -0.6784 C.3     1  LIG1             -0.54
      2 C          -2.4334    0.8482   -0.3103 C.3     1  LIG1       -0.040000000000000036
      3 C          -0.9497   -1.1389    0.1575 C.3     1  LIG1       -0.05999999999999961
      4 C          -4.7133    0.8142   -0.4697 C.2     1  LIG1       0.5300000000000002
      5 C          -2.3077   -0.5067   -0.0631 C.2     1  LIG1       0.05999999999999961
      6 C          -3.5097   -1.3113   -0.0096 C.2     1  LIG1       0.46999999999999975
      7 N          -3.5455   -2.5922    0.2336 N.pl3   1  LIG1      -0.7699999999999996
      8 N          -3.6176    1.5253   -0.5085 N.2     1  LIG1      -0.5300000000000002
      9 N          -4.6901   -0.5628   -0.2604 N.pl3   1  LIG1      -0.6699999999999999
     10 O           4.0376    2.5504    0.2546 O.3     1  LIG1      -0.7799999999999994
     11 O           4.1611    0.9232   -1.7367 O.2     1  LIG1      -0.7799999999999994
     12 O           4.9715    0.1639    0.6032 O.3     1  LIG1      -0.7899999999999991
     13 O           1.4062   -0.9341    2.0571 O.3     1  LIG1      -0.7200000000000006
     14 O           1.9542   -1.9856   -0.2726 O.2     1  LIG1      -0.7300000000000004
     15 O           0.0683   -0.2148   -0.0407 O.3     1  LIG1      -0.6199999999999992
     16 O           2.3991    0.5815    0.1835 O.3     1  LIG1      -0.6699999999999999
     17 P           4.0586    1.0858   -0.2136 P.3     1  LIG1       0.8900000000000006
     18 P           1.6382   -0.7673    0.5657 P.3     1  LIG1       1.0299999999999994
     19 H          -6.5788    1.0401   -1.5766 H       1  LIG1       0.19999999999999996
     20 H          -5.9331    2.5095   -0.7971 H       1  LIG1       0.18999999999999995
     21 H          -6.7490    1.2502    0.1716 H       1  LIG1       0.19999999999999996
     22 H          -1.5209    1.4334   -0.3452 H       1  LIG1       0.17000000000000004
     23 H          -0.8570   -2.0179   -0.5109 H       1  LIG1          0.13
     24 H          -0.9196   -1.5552    1.1833 H       1  LIG1          0.13
     25 H          -4.5243   -2.9149    0.2079 H       1  LIG1       0.30000000000000004
     26 H          -5.5681   -1.0540   -0.1445 H       1  LIG1           0.39
@<TRIPOS>BOND
     1    11    17    2
     2    19     1    1
     3    20     1    1
     4     1     4    1
     5     1    21    1
     6    23     3    1
     7     8     4    2
     8     8     2    1
     9     4     9    1
    10    22     2    1
    11     2     5    1
    12    14    18    2
    13     9    26    1
    14     9     6    1
    15    17    16    1
    16    17    10    1
    17    17    12    1
    18     5     6    2
    19     5     3    1
    20    15     3    1
    21    15    18    1
    22     6     7    1
    23     3    24    1
    24    16    18    1
    25    25     7    1
    26    18    13    1
