@<TRIPOS>MOLECULE
AHCYMLUZIRLXAA-SHYZEUOFSA-J	11070877	-2536.9640969153397
 39 40 0 0 0
SMALL
MULLIKEN NwChem

@<TRIPOS>ATOM
      1 C          -6.7126   -1.0935   -1.2732 C.ar    1  LIG1       -0.29000000000000004
      2 C          -5.5102   -0.8483   -0.7021 C.ar    1  LIG1       0.08000000000000007
      3 C          -3.2486   -1.5845    1.4137 C.3     1  LIG1       -0.33000000000000007
      4 C          -1.0074    0.7399   -0.4281 C.3     1  LIG1       -0.07000000000000028
      5 C          -1.7774   -1.1357    1.2484 C.3     1  LIG1       0.09999999999999964
      6 C          -1.9183    0.3336    0.7387 C.3     1  LIG1       0.1299999999999999
      7 C          -7.9366   -0.9928   -0.4603 C.ar    1  LIG1       0.5199999999999996
      8 C          -4.0836   -0.3055    1.2042 C.3     1  LIG1       0.28000000000000025
      9 C          -6.6021   -0.4196    1.4381 C.ar    1  LIG1       0.6600000000000001
     10 N          -7.8027   -0.6552    0.8622 N.ar    1  LIG1      -0.6600000000000001
     11 N          -5.4073   -0.5090    0.6191 N.ar    1  LIG1         -0.5
     12 O          -1.0785   -1.2277    2.4680 O.3     1  LIG1      -0.7400000000000002
     13 O          -9.0562   -1.2135   -0.9838 O.2     1  LIG1      -0.6799999999999997
     14 O          -6.4438   -0.1345    2.6393 O.2     1  LIG1      -0.6500000000000004
     15 O           6.0138    2.6664   -2.9071 O.2     1  LIG1      -0.6999999999999993
     16 O           7.5272    1.1850   -1.3717 O.3     1  LIG1      -0.7100000000000009
     17 O           5.9468    2.9844   -0.3546 O.3     1  LIG1      -0.7699999999999996
     18 O           1.3777   -0.7722    1.5642 O.3     1  LIG1      -0.7200000000000006
     19 O           0.9281   -1.3710   -0.9437 O.2     1  LIG1      -0.6999999999999993
     20 O           4.7537    1.1214    1.1481 O.3     1  LIG1      -0.7100000000000009
     21 O           4.6340   -1.2725    0.0570 O.2     1  LIG1      -0.6699999999999999
     22 O           0.3208    0.9631   -0.0202 O.3     1  LIG1      -0.5999999999999996
     23 O          -3.2954    0.4945    0.3233 O.3     1  LIG1      -0.5500000000000007
     24 O           4.9254    0.8765   -1.3979 O.3     1  LIG1      -0.6699999999999999
     25 O           2.7127    0.4514   -0.3181 O.3     1  LIG1      -0.6300000000000008
     26 P           6.2362    1.9403   -1.6009 P.3     1  LIG1       1.0399999999999991
     27 P           1.3802   -0.3730    0.0938 P.3     1  LIG1       1.1500000000000004
     28 P           4.3658    0.2011   -0.0018 P.3     1  LIG1       1.1199999999999992
     29 H          -6.7955   -1.3487   -2.3261 H       1  LIG1          0.13
     30 H          -4.5662   -0.8724   -1.2387 H       1  LIG1       0.18999999999999995
     31 H          -3.4146   -2.0245    2.4012 H       1  LIG1       0.16000000000000003
     32 H          -3.5300   -2.3223    0.6524 H       1  LIG1       0.17000000000000004
     33 H          -1.0598   -0.0247   -1.2160 H       1  LIG1       0.15000000000000002
     34 H          -1.3963    1.6860   -0.8379 H       1  LIG1       0.15000000000000002
     35 H          -1.2723   -1.7265    0.4713 H       1  LIG1          0.14
     36 H          -1.7163    0.9915    1.5985 H       1  LIG1          0.13
     37 H          -4.2556    0.2094    2.1543 H       1  LIG1       0.16000000000000003
     38 H          -0.1099   -1.0680    2.2186 H       1  LIG1       0.43999999999999995
     39 H           5.5299    2.4249    0.3654 H       1  LIG1       0.44999999999999996
@<TRIPOS>BOND
     1    15    26    2
     2    29     1    1
     3    26    24    1
     4    26    16    1
     5    26    17    1
     6    24    28    1
     7     1     2   ar
     8     1     7   ar
     9    30     2    1
    10    33     4    1
    11    13     7    2
    12    19    27    2
    13    34     4    1
    14     2    11   ar
    15     7    10   ar
    16     4    22    1
    17     4     6    1
    18    17    39    1
    19    25    28    1
    20    25    27    1
    21    22    27    1
    22    28    21    2
    23    28    20    1
    24    27    18    1
    25    23     6    1
    26    23     8    1
    27    35     5    1
    28    11     8    1
    29    11     9   ar
    30    32     3    1
    31     6     5    1
    32     6    36    1
    33    10     9   ar
    34     8     3    1
    35     8    37    1
    36     5     3    1
    37     5    12    1
    38     3    31    1
    39     9    14    2
    40    38    12    1
