@<TRIPOS>MOLECULE
AHLPHDHHMVZTML-BYPYZUCNSA-O	6044281	-458.03335119859037
 22 21 0 0 0
SMALL
MULLIKEN NwChem

@<TRIPOS>ATOM
      1 C           0.2733    0.8470   -1.5164 C.3     1  LIG1      -0.29000000000000004
      2 C          -0.2660   -0.5462   -1.1397 C.3     1  LIG1      -0.2699999999999996
      3 C          -0.0378    1.9516   -0.5113 C.3     1  LIG1      -0.16999999999999993
      4 CA          0.4114   -1.2647    0.0532 C.3     1  LIG1       -0.05999999999999961
      5 C          -0.2438   -0.8493    1.3805 C.2     1  LIG1       0.5899999999999999
      6 N           0.3814    3.3082   -1.1043 N.4     1  LIG1       -0.7199999999999998
      7 N           0.4682   -2.6970   -0.2096 N.3     1  LIG1      -0.7599999999999998
      8 O          -0.7061    0.2557    1.6034 O.2     1  LIG1      -0.5099999999999998
      9 OXT        -0.2343   -1.8344    2.2893 O.3     1  LIG1      -0.5700000000000003
     10 H          -0.1707    1.1173   -2.4852 H       1  LIG1       0.17000000000000004
     11 H           1.3598    0.7854   -1.6706 H       1  LIG1       0.17000000000000004
     12 H          -1.3494   -0.4882   -0.9812 H       1  LIG1       0.16000000000000003
     13 H          -0.0993   -1.1917   -2.0065 H       1  LIG1       0.17000000000000004
     14 H          -1.1017    2.0327   -0.2864 H       1  LIG1       0.20999999999999996
     15 H           0.4969    1.8514    0.4310 H       1  LIG1       0.21999999999999997
     16 HA          1.4533   -0.9159    0.1278 H       1  LIG1       0.19999999999999996
     17 H          -0.1244    3.5075   -1.9760 H       1  LIG1      0.43999999999999995
     18 H           0.1963    4.0804   -0.4527 H       1  LIG1      0.44999999999999996
     19 H           1.3844    3.3216   -1.3263 H       1  LIG1      0.43999999999999995
     20 H1          0.9643   -3.1743    0.5402 H       1  LIG1       0.32999999999999996
     21 H2         -0.4716   -3.0917   -0.2197 H       1  LIG1       0.32999999999999996
     22 HXT        -0.6420   -1.4914    3.1084 H       1  LIG1       0.44999999999999996
@<TRIPOS>BOND
     1    10     1    1
     2    13     2    1
     3    17     6    1
     4    11     1    1
     5     1     2    1
     6     1     3    1
     7    19     6    1
     8     2    12    1
     9     2     4    1
    10     6     3    1
    11     6    18    1
    12     3    14    1
    13     3    15    1
    14    21     7    1
    15     7     4    1
    16     7    20    1
    17     4    16    1
    18     4     5    1
    19     5     8    2
    20     5     9    1
    21     9    22    1
