@<TRIPOS>MOLECULE
AIBOHNYYKWYQMM-IQKLXLPLSA-N	6044283	-1555.9601535700633
 94 94 0 0 0
SMALL
MULLIKEN NwChem

@<TRIPOS>ATOM
      1 C           6.1033    7.6278  -12.0027 C.3     1  LIG1      -0.5300000000000002
      2 C           5.0050    5.3596  -11.7297 C.3     1  LIG1      -0.5300000000000002
      3 C          -0.8606    3.5589   -0.0335 C.3     1  LIG1      -0.5499999999999998
      4 C           0.7962   -3.6390    0.7092 C.3     1  LIG1        -0.54
      5 C           1.7543    8.8343   -6.9061 C.3     1  LIG1        -0.54
      6 C           3.7241    2.5558   -4.9399 C.3     1  LIG1      -0.5499999999999998
      7 C          -3.6320   -2.2446    5.7752 C.3     1  LIG1        -0.54
      8 C          -2.0896   -5.4444    9.5634 C.3     1  LIG1      -0.5300000000000002
      9 C          -3.7191   -8.7172    6.2608 C.3     1  LIG1      -0.46999999999999975
     10 C          -5.7379   -7.4937    7.1051 C.3     1  LIG1      -0.45999999999999996
     11 C          -0.1567    0.6754    0.1932 C.2     1  LIG1      -0.13999999999999968
     12 C           0.1345   -0.6596    0.3134 C.2     1  LIG1      -0.13999999999999968
     13 C           4.2386    8.5836   -9.7293 C.2     1  LIG1      -0.13999999999999968
     14 C           1.5889    3.2972   -2.9815 C.2     1  LIG1      -0.1200000000000001
     15 C           2.9107    6.0809   -6.2046 C.2     1  LIG1      -0.1299999999999999
     16 C          -1.5597   -3.0966    3.6519 C.2     1  LIG1      -0.1299999999999999
     17 C          -4.6325   -8.3429    9.9934 C.3     1  LIG1      -0.28000000000000025
     18 C           4.3168    7.2316  -10.2461 C.2     1  LIG1      -0.20999999999999996
     19 C           0.3325    1.5087   -0.8530 C.2     1  LIG1      -0.21999999999999975
     20 C          -0.3285   -1.4699    1.3920 C.2     1  LIG1      -0.21999999999999975
     21 C           3.5985    8.9948   -8.6013 C.2     1  LIG1      -0.21999999999999975
     22 C           0.6467    3.6543   -2.0529 C.2     1  LIG1      -0.21999999999999975
     23 C          -0.6036   -3.5070    2.7697 C.2     1  LIG1      -0.20999999999999996
     24 C           3.4582    6.9778   -7.1795 C.2     1  LIG1      -0.20000000000000018
     25 C           2.0911    4.1983   -3.9655 C.2     1  LIG1      -0.20999999999999996
     26 C           3.4971    4.8913   -5.8789 C.2     1  LIG1      -0.21999999999999975
     27 C          -1.9698   -3.8843    4.7786 C.2     1  LIG1      -0.20999999999999996
     28 C          -3.4544   -7.4228   10.3082 C.3     1  LIG1      -0.33000000000000007
     29 C          -3.2395   -4.4968    6.8037 C.2     1  LIG1      -0.17999999999999972
     30 C          -3.1347   -5.8454    6.7680 C.2     1  LIG1      -0.20000000000000018
     31 C          -4.3984   -9.0053    8.6385 C.3     1  LIG1      -0.28000000000000025
     32 C           5.0934    6.7897  -11.2623 C.2     1  LIG1      0.16999999999999993
     33 C           0.0677    2.8504   -1.0039 C.2     1  LIG1      0.13999999999999968
     34 C          -0.0733   -2.7991    1.6198 C.2     1  LIG1      0.13999999999999968
     35 C           2.9624    8.1957   -7.5582 C.2     1  LIG1      0.13999999999999968
     36 C           3.0571    3.9188   -4.9015 C.2     1  LIG1      0.1299999999999999
     37 C          -2.8979   -3.5656    5.7290 C.2     1  LIG1      0.1299999999999999
     38 C          -3.0409   -6.5423    9.1469 C.2     1  LIG1      0.09999999999999964
     39 C          -3.4571   -6.7623    7.8742 C.2     1  LIG1      0.08000000000000007
     40 C          -4.3203   -7.9826    7.4826 C.3     1  LIG1      0.04999999999999982
     41 H           7.1056    7.1853  -11.9134 H       1  LIG1       0.17000000000000004
     42 H           6.1648    8.6576  -11.6445 H       1  LIG1       0.17000000000000004
     43 H           5.8720    7.6524  -13.0772 H       1  LIG1       0.17000000000000004
     44 H           5.9775    4.8539  -11.6418 H       1  LIG1       0.16000000000000003
     45 H           4.2690    4.7842  -11.1593 H       1  LIG1       0.16000000000000003
     46 H           4.7279    5.3092  -12.7930 H       1  LIG1       0.16000000000000003
     47 H          -1.8296    3.0518    0.0448 H       1  LIG1       0.17000000000000004
     48 H          -0.4328    3.5945    0.9767 H       1  LIG1       0.17000000000000004
     49 H          -1.0514    4.5903   -0.3442 H       1  LIG1       0.17000000000000004
     50 H           1.6012   -4.1177    1.2823 H       1  LIG1       0.17000000000000004
     51 H           0.2104   -4.4479    0.2525 H       1  LIG1       0.17000000000000004
     52 H           1.2602   -3.0687   -0.0973 H       1  LIG1       0.17000000000000004
     53 H           0.8726    8.7668   -7.5579 H       1  LIG1       0.17000000000000004
     54 H           1.4962    8.3849   -5.9445 H       1  LIG1       0.17000000000000004
     55 H           1.9332    9.9031   -6.7340 H       1  LIG1       0.17000000000000004
     56 H           4.1473    2.2816   -3.9660 H       1  LIG1       0.17000000000000004
     57 H           3.0095    1.7692   -5.2145 H       1  LIG1       0.17000000000000004
     58 H           4.5354    2.5285   -5.6736 H       1  LIG1       0.17000000000000004
     59 H          -4.7074   -2.3897    5.6040 H       1  LIG1       0.17000000000000004
     60 H          -3.5324   -1.7874    6.7689 H       1  LIG1       0.17000000000000004
     61 H          -3.2708   -1.5213    5.0414 H       1  LIG1       0.17000000000000004
     62 H          -2.6161   -4.6387   10.0944 H       1  LIG1       0.16000000000000003
     63 H          -1.3514   -5.8466   10.2714 H       1  LIG1       0.15000000000000002
     64 H          -1.5558   -4.9969    8.7230 H       1  LIG1       0.16000000000000003
     65 H          -4.2560   -9.6594    6.0972 H       1  LIG1       0.15000000000000002
     66 H          -3.8043   -8.1341    5.3385 H       1  LIG1       0.15000000000000002
     67 H          -2.6611   -8.9547    6.4222 H       1  LIG1       0.15000000000000002
     68 H          -6.2392   -7.0190    7.9553 H       1  LIG1       0.15000000000000002
     69 H          -5.6909   -6.7549    6.2977 H       1  LIG1          0.14
     70 H          -6.3582   -8.3328    6.7658 H       1  LIG1          0.14
     71 H          -0.7898    1.1258    0.9566 H       1  LIG1       0.15000000000000002
     72 H           0.7616   -1.1112   -0.4532 H       1  LIG1       0.15000000000000002
     73 H           4.6872    9.3671  -10.3370 H       1  LIG1       0.15000000000000002
     74 H           1.9875    2.2853   -2.9719 H       1  LIG1       0.16000000000000003
     75 H           1.9735    6.3545   -5.7266 H       1  LIG1       0.16000000000000003
     76 H          -2.0420   -2.1347    3.4974 H       1  LIG1       0.16000000000000003
     77 H          -5.5629   -7.7613    9.9731 H       1  LIG1          0.14
     78 H          -4.7499   -9.0973   10.7807 H       1  LIG1          0.14
     79 H           3.6509    6.5086   -9.7785 H       1  LIG1          0.13
     80 H           0.9797    1.0228   -1.5822 H       1  LIG1          0.14
     81 H          -0.9388   -0.9457    2.1269 H       1  LIG1          0.14
     82 H           3.5188   10.0738   -8.4591 H       1  LIG1          0.14
     83 H           0.2955    4.6859   -2.0953 H       1  LIG1          0.14
     84 H          -0.1830   -4.5011    2.9322 H       1  LIG1          0.14
     85 H           4.3861    6.6533   -7.6459 H       1  LIG1          0.14
     86 H           1.6724    5.2036   -3.9436 H       1  LIG1          0.14
     87 H           4.4009    4.6258   -6.4291 H       1  LIG1          0.14
     88 H          -1.4545   -4.8382    4.8891 H       1  LIG1          0.14
     89 H          -3.6839   -6.7818   11.1723 H       1  LIG1       0.15000000000000002
     90 H          -2.5837   -8.0238   10.6193 H       1  LIG1       0.15000000000000002
     91 H          -3.6567   -4.0451    7.7040 H       1  LIG1          0.14
     92 H          -2.8486   -6.3028    5.8228 H       1  LIG1       0.15000000000000002
     93 H          -3.4527   -9.5652    8.6820 H       1  LIG1          0.13
     94 H          -5.1858   -9.7364    8.4141 H       1  LIG1           0.13
@<TRIPOS>BOND
     1    43     1    1
     2    46     2    1
     3     1    41    1
     4     1    42    1
     5     1    32    1
     6     2    44    1
     7     2    32    1
     8     2    45    1
     9    32    18    2
    10    73    13    1
    11    18    79    1
    12    18    13    1
    13    13    21    2
    14    21    82    1
    15    21    35    1
    16    85    24    1
    17    35    24    2
    18    35     5    1
    19    53     5    1
    20    24    15    1
    21     5    55    1
    22     5    54    1
    23    87    26    1
    24    15    26    2
    25    15    75    1
    26    26    36    1
    27    58     6    1
    28    57     6    1
    29     6    36    1
    30     6    56    1
    31    36    25    2
    32    25    86    1
    33    25    14    1
    34    14    74    1
    35    14    22    2
    36    83    22    1
    37    22    33    1
    38    80    19    1
    39    33    19    2
    40    33     3    1
    41    19    11    1
    42    72    12    1
    43    49     3    1
    44    52     4    1
    45     3    47    1
    46     3    48    1
    47    11    12    2
    48    11    71    1
    49    51     4    1
    50    12    20    1
    51     4    50    1
    52     4    34    1
    53    20    34    2
    54    20    81    1
    55    34    23    1
    56    23    84    1
    57    23    16    2
    58    76    16    1
    59    16    27    1
    60    27    88    1
    61    27    37    2
    62    61     7    1
    63    66     9    1
    64    59     7    1
    65    37     7    1
    66    37    29    1
    67     7    60    1
    68    92    30    1
    69    65     9    1
    70     9    67    1
    71     9    40    1
    72    69    10    1
    73    70    10    1
    74    30    29    2
    75    30    39    1
    76    29    91    1
    77    10    40    1
    78    10    68    1
    79    40    39    1
    80    40    31    1
    81    39    38    2
    82    94    31    1
    83    31    93    1
    84    31    17    1
    85    64     8    1
    86    38     8    1
    87    38    28    1
    88     8    62    1
    89     8    63    1
    90    77    17    1
    91    17    28    1
    92    17    78    1
    93    28    90    1
    94    28    89    1
