@<TRIPOS>MOLECULE
AIJULSRZWUXGPQ-UHFFFAOYSA-N	6044284	-267.1111138058428
 9 8 0 0 0
SMALL
MULLIKEN NwChem

@<TRIPOS>ATOM
      1 C           0.7295    0.1627    1.6338 C.3     1  LIG1       -0.5599999999999996
      2 C          -0.6429   -0.8345   -0.3657 C.2     1  LIG1       0.20999999999999996
      3 C           0.2536    0.2993    0.2009 C.2     1  LIG1       0.41999999999999993
      4 O          -1.0277   -0.8340   -1.5081 O.2     1  LIG1      -0.40000000000000036
      5 O           0.5393    1.2400   -0.5064 O.2     1  LIG1      -0.46000000000000085
      6 H           0.3941   -0.7621    2.1128 H       1  LIG1       0.18999999999999995
      7 H           0.3674    1.0177    2.2154 H       1  LIG1       0.20999999999999996
      8 H           1.8239    0.1996    1.6502 H       1  LIG1       0.20999999999999996
      9 H          -0.9078   -1.6489    0.3462 H       1  LIG1       0.17000000000000004
@<TRIPOS>BOND
     1     4     2    2
     2     5     3    2
     3     2     3    1
     4     2     9    1
     5     3     1    1
     6     1     8    1
     7     1     6    1
     8     1     7    1
