@<TRIPOS>MOLECULE
ALDWDBNWDITVID-XSWVMQTGSA-L	11152822	-2237.0107528215676
 103 102 0 0 0
SMALL
MULLIKEN NwChem

@<TRIPOS>ATOM
      1 C          -8.8636    1.5282    1.8765 C.3     1  LIG1      -0.45999999999999996
      2 C           7.3902    3.3603   -1.1676 C.3     1  LIG1      -0.46999999999999975
      3 C          -9.6580    2.7044    1.2937 C.3     1  LIG1        -0.25
      4 C           8.1041    3.2852   -2.5232 C.3     1  LIG1        -0.25
      5 C         -10.3690    2.4047   -0.0462 C.3     1  LIG1      -0.2599999999999998
      6 C           9.0776    2.1051   -2.7084 C.3     1  LIG1      -0.2599999999999998
      7 C          -9.5588    2.7401   -1.3101 C.3     1  LIG1      -0.2599999999999998
      8 C           8.4443    0.7153   -2.9167 C.3     1  LIG1      -0.2699999999999996
      9 C          -8.2508    1.9601   -1.4799 C.3     1  LIG1      -0.2599999999999998
     10 C           7.7970    0.0614   -1.6674 C.3     1  LIG1      -0.2599999999999998
     11 C          -7.5367    2.2692   -2.8000 C.3     1  LIG1      -0.2999999999999998
     12 C           6.2802   -0.1663   -1.7928 C.3     1  LIG1      -0.2699999999999996
     13 C          -6.2368    1.5330   -3.0252 C.2     1  LIG1      -0.13999999999999968
     14 C           5.6085   -0.7248   -0.5317 C.3     1  LIG1      -0.2999999999999998
     15 C          -5.7210    0.5687   -2.2563 C.2     1  LIG1      -0.11000000000000032
     16 C          -4.4184   -0.1446   -2.4786 C.3     1  LIG1      -0.3099999999999996
     17 C           5.5043    0.2930    0.6178 C.3     1  LIG1      -0.2599999999999998
     18 C          -3.4788   -0.0572   -1.2576 C.3     1  LIG1      -0.2699999999999996
     19 C           4.7001   -0.2408    1.8161 C.3     1  LIG1      -0.2999999999999998
     20 C          -2.1499   -0.8102   -1.4257 C.3     1  LIG1      -0.29000000000000004
     21 C           5.4706   -1.2736    2.6562 C.3     1  LIG1      -0.2699999999999996
     22 C          -2.2638   -2.3093   -1.7532 C.3     1  LIG1      -0.2699999999999996
     23 C           4.6165   -2.0304    3.6986 C.3     1  LIG1      -0.2999999999999998
     24 C          -3.1089   -3.1772   -0.7956 C.3     1  LIG1      -0.2699999999999996
     25 C           4.5672   -1.4259    5.1138 C.3     1  LIG1      -0.28000000000000025
     26 C          -2.5020   -3.3384    0.6134 C.3     1  LIG1      -0.33000000000000007
     27 C           3.8644   -0.0597    5.2798 C.3     1  LIG1       -0.33999999999999986
     28 C          -2.9952   -2.2964    1.6451 C.3     1  LIG1       -0.34999999999999964
     29 C           0.6991   -0.1304    3.3120 C.3     1  LIG1       -0.08999999999999986
     30 C           1.0252   -2.6162    2.7788 C.3     1  LIG1       -0.04999999999999982
     31 C           0.1216   -1.5413    3.4362 C.3     1  LIG1       0.08000000000000007
     32 C           2.3616   -0.1520    5.0585 C.2     1  LIG1       0.6200000000000001
     33 C          -2.0669   -2.3528    2.8385 C.2     1  LIG1       0.6100000000000003
     34 O           1.5551   -0.3415    5.9561 O.2     1  LIG1      -0.5500000000000007
     35 O          -2.1185   -3.1832    3.7317 O.2     1  LIG1      -0.5500000000000007
     36 O           0.4794   -3.0637   -0.1434 O.3     1  LIG1        -0.75
     37 O           0.4870   -0.5158    0.3365 O.3     1  LIG1      -0.7599999999999998
     38 O           2.6487   -1.6602   -0.5537 O.2     1  LIG1      -0.7100000000000009
     39 O           2.0731   -0.0240    3.7682 O.3     1  LIG1      -0.4499999999999993
     40 O           1.9035   -2.1352    1.8200 O.3     1  LIG1      -0.6199999999999992
     41 O          -1.1310   -1.4049    2.7159 O.3     1  LIG1      -0.46000000000000085
     42 P           1.3121   -1.8057    0.1670 P.3     1  LIG1       1.0299999999999994
     43 H          -8.3774    1.8080    2.8181 H       1  LIG1          0.14
     44 H          -8.0840    1.1774    1.1950 H       1  LIG1       0.15000000000000002
     45 H          -9.5252    0.6773    2.0830 H       1  LIG1          0.14
     46 H           6.8158    4.2919   -1.0831 H       1  LIG1          0.14
     47 H           8.1141    3.3389   -0.3425 H       1  LIG1          0.14
     48 H           6.6958    2.5317   -1.0132 H       1  LIG1       0.17000000000000004
     49 H          -8.9933    3.5705    1.1625 H       1  LIG1          0.13
     50 H         -10.4076    3.0120    2.0357 H       1  LIG1          0.13
     51 H           7.3558    3.2576   -3.3292 H       1  LIG1          0.13
     52 H           8.6715    4.2182   -2.6684 H       1  LIG1          0.13
     53 H         -11.3065    2.9776   -0.0891 H       1  LIG1          0.13
     54 H         -10.6618    1.3443   -0.0706 H       1  LIG1          0.13
     55 H           9.7623    2.0654   -1.8463 H       1  LIG1          0.13
     56 H           9.7067    2.3282   -3.5844 H       1  LIG1          0.13
     57 H         -10.1947    2.5614   -2.1905 H       1  LIG1          0.13
     58 H          -9.3386    3.8188   -1.3112 H       1  LIG1          0.13
     59 H           9.2278    0.0534   -3.3134 H       1  LIG1          0.13
     60 H           7.6935    0.7930   -3.7174 H       1  LIG1          0.13
     61 H          -7.5673    2.1881   -0.6535 H       1  LIG1       0.15000000000000002
     62 H          -8.4600    0.8831   -1.4174 H       1  LIG1          0.14
     63 H           8.0101    0.6691   -0.7795 H       1  LIG1          0.14
     64 H           8.2706   -0.9117   -1.4715 H       1  LIG1          0.13
     65 H          -7.3487    3.3543   -2.8537 H       1  LIG1          0.14
     66 H          -8.2250    2.0612   -3.6379 H       1  LIG1       0.15000000000000002
     67 H           6.1057   -0.8510   -2.6364 H       1  LIG1          0.12
     68 H           5.7915    0.7792   -2.0784 H       1  LIG1          0.13
     69 H          -5.6813    1.8377   -3.9151 H       1  LIG1          0.12
     70 H           6.1709   -1.6120   -0.1998 H       1  LIG1       0.10999999999999999
     71 H           4.5856   -1.0673   -0.7538 H       1  LIG1       0.17000000000000004
     72 H          -6.2587    0.2565   -1.3585 H       1  LIG1          0.13
     73 H          -4.6233   -1.2067   -2.6787 H       1  LIG1       0.15000000000000002
     74 H          -3.9134    0.2495   -3.3721 H       1  LIG1          0.13
     75 H           4.9872    1.1840    0.2293 H       1  LIG1          0.12
     76 H           6.5024    0.6350    0.9495 H       1  LIG1          0.12
     77 H          -4.0249   -0.4391   -0.3838 H       1  LIG1          0.14
     78 H          -3.2745    1.0019   -1.0452 H       1  LIG1          0.12
     79 H           4.3865    0.5994    2.4479 H       1  LIG1          0.12
     80 H           3.7847   -0.7039    1.4327 H       1  LIG1       0.18000000000000005
     81 H          -1.5013   -0.6784   -0.5467 H       1  LIG1       0.17000000000000004
     82 H          -1.5862   -0.3334   -2.2424 H       1  LIG1       0.10999999999999999
     83 H           6.3428   -0.8007    3.1452 H       1  LIG1          0.12
     84 H           5.8860   -2.0208    1.9674 H       1  LIG1          0.13
     85 H          -1.2399   -2.7040   -1.7316 H       1  LIG1          0.13
     86 H          -2.6619   -2.4414   -2.7752 H       1  LIG1       0.10999999999999999
     87 H           5.0260   -3.0448    3.8195 H       1  LIG1          0.12
     88 H           3.6136   -2.1494    3.2771 H       1  LIG1       0.18999999999999995
     89 H          -3.1798   -4.1763   -1.2512 H       1  LIG1          0.13
     90 H          -4.1488   -2.8084   -0.7360 H       1  LIG1          0.13
     91 H           5.5983   -1.3126    5.4866 H       1  LIG1       0.15000000000000002
     92 H           4.0712   -2.1374    5.7906 H       1  LIG1          0.14
     93 H          -1.4037   -3.2679    0.5112 H       1  LIG1       0.21999999999999997
     94 H          -2.7384   -4.3332    1.0166 H       1  LIG1          0.13
     95 H           4.0134    0.2992    6.3048 H       1  LIG1       0.16000000000000003
     96 H           4.2946    0.6672    4.5852 H       1  LIG1       0.18000000000000005
     97 H          -2.9497   -1.2935    1.2193 H       1  LIG1       0.17000000000000004
     98 H          -4.0243   -2.5114    1.9643 H       1  LIG1       0.16000000000000003
     99 H           0.0876    0.5802    3.8789 H       1  LIG1       0.16000000000000003
    100 H           0.7319    0.1013    2.2388 H       1  LIG1       0.20999999999999996
    101 H           0.3768   -3.4102    2.3767 H       1  LIG1          0.14
    102 H           1.6157   -3.0595    3.6032 H       1  LIG1          0.13
    103 H          -0.1025   -1.8130    4.4722 H       1  LIG1       0.16000000000000003
@<TRIPOS>BOND
     1    69    13    1
     2    60     8    1
     3    66    11    1
     4    56     6    1
     5    74    16    1
     6    51     4    1
     7    59     8    1
     8    13    11    1
     9    13    15    2
    10     8     6    1
    11     8    10    1
    12    65    11    1
    13    11     9    1
    14    86    22    1
    15     6     4    1
    16     6    55    1
    17    73    16    1
    18    52     4    1
    19    67    12    1
    20     4     2    1
    21    16    15    1
    22    16    18    1
    23    15    72    1
    24    82    20    1
    25    57     7    1
    26    68    12    1
    27    12    10    1
    28    12    14    1
    29    22    85    1
    30    22    20    1
    31    22    24    1
    32    10    64    1
    33    10    63    1
    34     9    62    1
    35     9     7    1
    36     9    61    1
    37    20    18    1
    38    20    81    1
    39    58     7    1
    40     7     5    1
    41    18    78    1
    42    18    77    1
    43    89    24    1
    44     2    46    1
    45     2    48    1
    46     2    47    1
    47    24    90    1
    48    24    26    1
    49    71    14    1
    50    38    42    2
    51    14    70    1
    52    14    17    1
    53    36    42    1
    54    53     5    1
    55    54     5    1
    56     5     3    1
    57    42    37    1
    58    42    40    1
    59    75    17    1
    60    93    26    1
    61    26    94    1
    62    26    28    1
    63    17    76    1
    64    17    19    1
    65    49     3    1
    66    44     1    1
    67    97    28    1
    68     3     1    1
    69     3    50    1
    70    80    19    1
    71    28    98    1
    72    28    33    1
    73    19    79    1
    74    19    21    1
    75    40    30    1
    76     1    45    1
    77     1    43    1
    78    84    21    1
    79   100    29    1
    80   101    30    1
    81    21    83    1
    82    21    23    1
    83    41    33    1
    84    41    31    1
    85    30    31    1
    86    30   102    1
    87    33    35    2
    88    88    23    1
    89    29    31    1
    90    29    39    1
    91    29    99    1
    92    31   103    1
    93    23    87    1
    94    23    25    1
    95    39    32    1
    96    96    27    1
    97    32    27    1
    98    32    34    2
    99    25    27    1
   100    25    91    1
   101    25    92    1
   102    27    95    1
