@<TRIPOS>MOLECULE
ALRHLSYJTWAHJZ-UHFFFAOYSA-M	6044287	-343.09033739138454
 11 10 0 0 0
SMALL
MULLIKEN NwChem

@<TRIPOS>ATOM
      1 C           0.2252   -0.7325   -0.6420 C.3     1  LIG1       -0.3799999999999999
      2 C          -0.0860   -1.3876    0.7117 C.3     1  LIG1       -0.03000000000000025
      3 C          -0.1211    0.7945   -0.6810 C.2     1  LIG1       0.5499999999999998
      4 O           0.6097   -0.7600    1.7704 O.3     1  LIG1      -0.7100000000000009
      5 O          -0.4981    1.2648   -1.7713 O.co2   1  LIG1      -0.6600000000000001
      6 O           0.0505    1.4140    0.4231 O.co2   1  LIG1      -0.6699999999999999
      7 H          -0.3032   -1.2411   -1.4588 H       1  LIG1          0.13
      8 H           1.3048   -0.8360   -0.8328 H       1  LIG1       0.15000000000000002
      9 H          -1.1839   -1.3570    0.8744 H       1  LIG1       0.10999999999999999
     10 H           0.1972   -2.4539    0.7049 H       1  LIG1          0.13
     11 H           0.5005    0.2053    1.5116 H       1  LIG1            0.4
@<TRIPOS>BOND
     1     5     3   ar
     2     7     1    1
     3     8     1    1
     4     3     1    1
     5     3     6   ar
     6     1     2    1
     7    10     2    1
     8     2     9    1
     9     2     4    1
    10    11     4    1
