@<TRIPOS>MOLECULE
ALYNCZNDIQEVRV-UHFFFAOYSA-M	6044288	-475.6278901016372
 16 16 0 0 0
SMALL
MULLIKEN NwChem

@<TRIPOS>ATOM
      1 C          -1.0533    0.5691    0.0238 C.ar    1  LIG1      -0.21999999999999975
      2 C           1.0746   -0.5283    0.0244 C.ar    1  LIG1      -0.23000000000000043
      3 C          -1.7005   -0.6663    0.0731 C.ar    1  LIG1      -0.20000000000000018
      4 C           0.4431   -1.7718    0.0737 C.ar    1  LIG1      -0.20000000000000018
      5 C           0.3422    0.6634   -0.0039 C.ar    1  LIG1       0.04999999999999982
      6 C          -0.9567   -1.8550    0.0964 C.ar    1  LIG1       0.2599999999999998
      7 C           1.0532    2.0431   -0.0728 C.2     1  LIG1       0.45999999999999996
      8 N          -1.6085   -3.1189    0.1945 N.pl3   1  LIG1      -0.8099999999999996
      9 O           2.3095    1.9947   -0.0972 O.co2   1  LIG1      -0.6699999999999999
     10 O           0.2846    3.0381   -0.0974 O.co2   1  LIG1      -0.6699999999999999
     11 H          -1.6100    1.5022   -0.0010 H       1  LIG1          0.13
     12 H           2.1577   -0.4416    0.0001 H       1  LIG1          0.13
     13 H          -2.7904   -0.7196    0.0945 H       1  LIG1          0.14
     14 H           1.0317   -2.6907    0.0953 H       1  LIG1          0.14
     15 H          -1.0600   -3.8550   -0.2411 H       1  LIG1          0.35
     16 H          -2.5245   -3.1004   -0.2449 H       1  LIG1           0.35
@<TRIPOS>BOND
     1    16     8    1
     2    15     8    1
     3    10     7   ar
     4     9     7   ar
     5     7     5    1
     6     5     1   ar
     7     5     2   ar
     8    11     1    1
     9    12     2    1
    10     1     3   ar
    11     2     4   ar
    12     3    13    1
    13     3     6   ar
    14     4    14    1
    15     4     6   ar
    16     6     8    1
