@<TRIPOS>MOLECULE
AMANZGDVBADZLH-QTJPLKLFSA-J	11070887	-4450.635726757438
 117 119 0 0 0
SMALL
MULLIKEN NwChem

@<TRIPOS>ATOM
      1 C          -1.6595   -0.3031    6.6251 C.3     1  LIG1      -0.45999999999999996
      2 C          -3.3365    2.2945   -3.4107 C.3     1  LIG1      -0.4900000000000002
      3 C          -3.0186    0.2467   -4.8465 C.3     1  LIG1      -0.45999999999999996
      4 C          -1.4710    1.1956    6.3439 C.3     1  LIG1      -0.2599999999999998
      5 C          -0.1396    1.5184    5.6394 C.3     1  LIG1      -0.2599999999999998
      6 C           1.0607    1.5062    6.5943 C.3     1  LIG1      -0.2400000000000002
      7 C           2.4296    1.6441    5.9109 C.3     1  LIG1      -0.2999999999999998
      8 C           2.5872    2.9015    5.0280 C.3     1  LIG1      -0.2999999999999998
      9 C           2.1193    2.7950    3.5919 C.2     1  LIG1      -0.15000000000000036
     10 C           2.1542    1.6941    2.8187 C.2     1  LIG1      -0.16999999999999993
     11 C           1.7555    1.7318    1.4137 C.2     1  LIG1      -0.17999999999999972
     12 C           2.0286    0.8121    0.4663 C.2     1  LIG1      -0.1299999999999999
     13 C           2.8507   -0.4398    0.6114 C.3     1  LIG1      -0.34999999999999964
     14 C           4.1042   -0.4195   -0.2941 C.3     1  LIG1      -0.2599999999999998
     15 C           3.7549   -0.2257   -1.7785 C.3     1  LIG1       -0.41000000000000014
     16 C           1.9595    4.0027   -1.8636 C.3     1  LIG1       -0.33999999999999986
     17 C           0.4294    4.2467   -1.9464 C.3     1  LIG1       -0.16000000000000014
     18 C           2.9919    1.9374   -4.7483 C.3     1  LIG1       -0.11000000000000032
     19 C           2.9362    0.4056   -4.8332 C.3     1  LIG1       -0.4500000000000002
     20 C          -1.6882    0.4570    1.9845 C.3     1  LIG1       -0.07000000000000028
     21 C          -2.9576    0.0320   -2.3575 C.3     1  LIG1       -0.09999999999999964
     22 C           0.9447   -5.7181   -1.8997 C.ar    1  LIG1       0.15000000000000036
     23 C          -0.0034   -1.5407   -1.1516 C.ar    1  LIG1       0.21999999999999975
     24 C          -1.5323   -1.0282    2.2163 C.3     1  LIG1       0.11000000000000032
     25 C           2.5043    3.6517   -3.2606 C.2     1  LIG1       0.5099999999999998
     26 C           4.8579   -0.6125   -2.7166 C.2     1  LIG1       0.2999999999999998
     27 C           0.8803   -3.0951   -2.3101 C.ar    1  LIG1       0.20000000000000018
     28 C          -0.0620   -2.9246    2.0402 C.3     1  LIG1       0.04999999999999982
     29 C          -0.1242   -1.4770    2.6362 C.3     1  LIG1       0.11000000000000032
     30 C          -1.0517    1.1906   -3.5809 C.3     1  LIG1       0.08000000000000007
     31 C           1.5998   -3.9229   -3.1884 C.ar    1  LIG1       0.4500000000000002
     32 C           0.2690   -3.7258   -1.2115 C.ar    1  LIG1          0.54
     33 C          -0.5932    2.1428   -2.4777 C.2     1  LIG1           0.5
     34 C          -0.9991   -2.8376    0.8190 C.3     1  LIG1       0.28000000000000025
     35 C          -2.6018    0.9488   -3.5412 C.3     1  LIG1       0.07000000000000028
     36 N           2.2689   -3.4241   -4.2813 N.pl3   1  LIG1      -0.7999999999999998
     37 N           2.8226    2.3678   -3.3835 N.am    1  LIG1      -0.5700000000000003
     38 N          -0.1979    3.2894   -2.8447 N.2     1  LIG1      -0.4900000000000002
     39 N           1.6192   -5.2534   -2.9708 N.ar    1  LIG1        -0.54
     40 N           0.2587   -5.0493   -0.9740 N.ar    1  LIG1        -0.54
     41 N           0.6900   -1.7297   -2.2606 N.ar    1  LIG1      -0.5800000000000001
     42 N          -0.2891   -2.7062   -0.4753 N.ar    1  LIG1      -0.5199999999999996
     43 O           2.4909    4.5487   -4.1517 O.2     1  LIG1      -0.7300000000000004
     44 O           5.9531   -1.0442   -2.4119 O.2     1  LIG1      -0.4900000000000002
     45 O          -0.5791   -3.8791    2.9209 O.3     1  LIG1      -0.7300000000000004
     46 O          -0.6774    1.7330   -4.8390 O.3     1  LIG1      -0.7100000000000009
     47 O          -0.6541    1.6265   -1.2281 O.2     1  LIG1      -0.6899999999999995
     48 O           2.5866   -1.2498    3.9464 O.2     1  LIG1        -0.75
     49 O           1.4094   -3.5046    4.4914 O.3     1  LIG1      -0.7799999999999994
     50 O           1.3201   -1.5512    6.2073 O.3     1  LIG1      -0.7300000000000004
     51 O          -2.3420    2.8504    0.2867 O.2     1  LIG1      -0.7100000000000009
     52 O          -4.4338    2.8633    1.8736 O.3     1  LIG1      -0.6199999999999992
     53 O          -4.7096   -0.9446    0.1477 O.3     1  LIG1      -0.7200000000000006
     54 O          -6.6186    0.2667   -1.0962 O.2     1  LIG1      -0.6099999999999994
     55 O          -3.0430    0.6876    1.5185 O.3     1  LIG1      -0.6300000000000008
     56 O          -4.3978   -0.0951   -2.2645 O.3     1  LIG1      -0.5500000000000007
     57 O          -1.8182   -1.6963    0.9579 O.3     1  LIG1      -0.5500000000000007
     58 O          -0.0060   -1.4008    4.0208 O.3     1  LIG1      -0.6500000000000004
     59 O          -4.4656    1.5629   -0.3571 O.3     1  LIG1      -0.6600000000000001
     60 P           1.5016   -1.9776    4.7552 P.3     1  LIG1       1.0700000000000003
     61 P          -3.5248    2.1570    0.9305 P.3     1  LIG1       1.2200000000000006
     62 P          -5.1550    0.2126   -0.8678 P.3     1  LIG1       1.2200000000000006
     63 S           4.5388   -0.4904   -4.5245 S.3     1  LIG1      0.009999999999999787
     64 H          -2.5555   -0.4822    7.2425 H       1  LIG1          0.12
     65 H          -1.7568   -0.8503    5.6833 H       1  LIG1       0.15000000000000002
     66 H          -0.7797   -0.7439    7.1025 H       1  LIG1       0.15000000000000002
     67 H          -4.4118    2.1621   -3.5686 H       1  LIG1       0.16000000000000003
     68 H          -2.9420    2.9935   -4.1562 H       1  LIG1       0.15000000000000002
     69 H          -3.1979    2.7277   -2.4157 H       1  LIG1       0.16000000000000003
     70 H          -2.4458   -0.6797   -4.9889 H       1  LIG1          0.14
     71 H          -4.0843   -0.0075   -4.8094 H       1  LIG1       0.15000000000000002
     72 H          -2.8238    0.8958   -5.7044 H       1  LIG1       0.15000000000000002
     73 H          -1.5329    1.7719    7.2860 H       1  LIG1       0.10999999999999999
     74 H          -2.3070    1.5500    5.7212 H       1  LIG1          0.12
     75 H           0.0336    0.7754    4.8553 H       1  LIG1       0.16000000000000003
     76 H          -0.2138    2.4998    5.1476 H       1  LIG1       0.10999999999999999
     77 H           1.0742    0.5440    7.1142 H       1  LIG1          0.14
     78 H           0.9332    2.3171    7.3402 H       1  LIG1       0.08999999999999997
     79 H           2.6208    0.7296    5.3376 H       1  LIG1       0.17000000000000004
     80 H           3.1995    1.6781    6.7002 H       1  LIG1       0.10999999999999999
     81 H           3.6528    3.1990    5.0142 H       1  LIG1          0.14
     82 H           2.0674    3.7480    5.5106 H       1  LIG1          0.13
     83 H           1.7806    3.7329    3.1394 H       1  LIG1          0.12
     84 H           2.4548    0.7273    3.2348 H       1  LIG1       0.19999999999999996
     85 H           1.1833    2.6078    1.0986 H       1  LIG1          0.13
     86 H           1.6421    1.0093   -0.5310 H       1  LIG1          0.14
     87 H           3.1208   -0.6366    1.6548 H       1  LIG1       0.16000000000000003
     88 H           2.2409   -1.3030    0.3025 H       1  LIG1       0.16000000000000003
     89 H           4.6515   -1.3624   -0.1667 H       1  LIG1          0.14
     90 H           4.7825    0.3812    0.0294 H       1  LIG1          0.14
     91 H           3.4518    0.8081   -2.0393 H       1  LIG1       0.21999999999999997
     92 H           2.8710   -0.8226   -2.0433 H       1  LIG1       0.20999999999999996
     93 H           2.4263    4.9239   -1.4837 H       1  LIG1          0.12
     94 H           2.1671    3.1911   -1.1622 H       1  LIG1          0.13
     95 H           0.2613    5.2390   -2.3811 H       1  LIG1          0.14
     96 H          -0.0174    4.2323   -0.9412 H       1  LIG1          0.14
     97 H           2.1738    2.3196   -5.3897 H       1  LIG1       0.09999999999999998
     98 H           3.9262    2.2918   -5.2320 H       1  LIG1       0.09999999999999998
     99 H           2.6870    0.0752   -5.8507 H       1  LIG1       0.18999999999999995
    100 H           2.1633    0.0266   -4.1566 H       1  LIG1       0.18999999999999995
    101 H          -0.9707    0.8073    1.2394 H       1  LIG1       0.18999999999999995
    102 H          -1.5154    0.9928    2.9237 H       1  LIG1       0.18999999999999995
    103 H          -2.5471   -0.9735   -2.5068 H       1  LIG1       0.17000000000000004
    104 H          -2.5496    0.4249   -1.4294 H       1  LIG1       0.18999999999999995
    105 H           0.9788   -6.8008   -1.7707 H       1  LIG1       0.16000000000000003
    106 H          -0.3289   -0.5767   -0.7903 H       1  LIG1          0.24
    107 H          -2.2497   -1.3814    2.9667 H       1  LIG1       0.16000000000000003
    108 H           0.9672   -3.1625    1.7339 H       1  LIG1          0.14
    109 H           0.6283   -0.8563    2.1312 H       1  LIG1       0.16000000000000003
    110 H          -0.5391    0.2291   -3.4292 H       1  LIG1       0.16000000000000003
    111 H          -1.5970   -3.7518    0.7486 H       1  LIG1       0.18000000000000005
    112 H           2.5386   -2.4464   -4.2311 H       1  LIG1          0.39
    113 H           3.0123   -4.0254   -4.6126 H       1  LIG1          0.36
    114 H           0.1180   -3.8388    3.6821 H       1  LIG1       0.43000000000000005
    115 H          -0.2619    2.5926   -4.5838 H       1  LIG1       0.42000000000000004
    116 H          -1.2101    2.2020   -0.5994 H       1  LIG1          0.49
    117 H          -3.8943   -0.7060    0.6512 H       1  LIG1            0.5
@<TRIPOS>BOND
     1    99    19    1
     2    72     3    1
     3    97    18    1
     4    98    18    1
     5    70     3    1
     6     3    71    1
     7     3    35    1
     8    46   115    1
     9    46    30    1
    10    19    18    1
    11    19    63    1
    12    19   100    1
    13    18    37    1
    14   113    36    1
    15    63    26    1
    16    36   112    1
    17    36    31    1
    18    68     2    1
    19    43    25    2
    20    30    35    1
    21    30   110    1
    22    30    33    1
    23    67     2    1
    24    35     2    1
    25    35    21    1
    26     2    69    1
    27    37    25   am
    28    25    16    1
    29    31    39   ar
    30    31    27   ar
    31    39    22   ar
    32    38    33    2
    33    38    17    1
    34    26    44    2
    35    26    15    1
    36   103    21    1
    37    33    47    1
    38    95    17    1
    39    21    56    1
    40    21   104    1
    41    27    41   ar
    42    27    32   ar
    43    56    62    1
    44    41    23   ar
    45    92    15    1
    46    91    15    1
    47    17    16    1
    48    17    96    1
    49    22   105    1
    50    22    40   ar
    51    16    93    1
    52    16    94    1
    53    15    14    1
    54    47   116    1
    55    32    40   ar
    56    32    42   ar
    57    23   106    1
    58    23    42   ar
    59    54    62    2
    60    62    59    1
    61    62    53    1
    62    86    12    1
    63    42    34    1
    64    59    61    1
    65    14    89    1
    66    14    90    1
    67    14    13    1
    68    53   117    1
    69    51    61    2
    70    88    13    1
    71    12    13    1
    72    12    11    2
    73    13    87    1
    74   111    34    1
    75    34    57    1
    76    34    28    1
    77    61    55    1
    78    61    52    1
    79    57    24    1
    80    85    11    1
    81   101    20    1
    82    11    10    1
    83    55    20    1
    84   108    28    1
    85    20    24    1
    86    20   102    1
    87    28    29    1
    88    28    45    1
    89   109    29    1
    90    24    29    1
    91    24   107    1
    92    29    58    1
    93    10    84    1
    94    10     9    2
    95    45   114    1
    96    83     9    1
    97     9     8    1
    98    48    60    2
    99    58    60    1
   100    49    60    1
   101    60    50    1
   102    75     5    1
   103    81     8    1
   104     8    82    1
   105     8     7    1
   106    76     5    1
   107    79     7    1
   108     5     4    1
   109     5     6    1
   110    65     1    1
   111    74     4    1
   112     7     6    1
   113     7    80    1
   114     4     1    1
   115     4    73    1
   116     6    77    1
   117     6    78    1
   118     1    66    1
   119     1    64    1
