@<TRIPOS>MOLECULE
AMIMRNSIRUDHCM-UHFFFAOYSA-N	6044290	-232.38199455273642
 13 12 0 0 0
SMALL
MULLIKEN NwChem

@<TRIPOS>ATOM
      1 C           0.9484   -1.3645    0.2625 C.3     1  LIG1      -0.46999999999999975
      2 C           0.9488    0.7234   -1.1877 C.3     1  LIG1      -0.46999999999999975
      3 C          -1.0606    0.1059    0.1534 C.2     1  LIG1       0.2699999999999996
      4 C           0.4554    0.0876    0.1246 C.3     1  LIG1       -0.13999999999999968
      5 O          -1.7389    0.6656    0.9852 O.2     1  LIG1      -0.4499999999999993
      6 H           0.5600   -1.9907   -0.5508 H       1  LIG1       0.16000000000000003
      7 H           0.6321   -1.8069    1.2133 H       1  LIG1       0.16000000000000003
      8 H           2.0425   -1.4003    0.2160 H       1  LIG1       0.17000000000000004
      9 H           0.5629    0.1780   -2.0583 H       1  LIG1       0.16000000000000003
     10 H           0.6302    1.7681   -1.2726 H       1  LIG1       0.16000000000000003
     11 H           2.0429    0.6952   -1.2359 H       1  LIG1       0.17000000000000004
     12 H          -1.5364   -0.4607   -0.6847 H       1  LIG1          0.13
     13 H           0.7977    0.6810    0.9802 H       1  LIG1       0.15000000000000002
@<TRIPOS>BOND
     1     9     2    1
     2    10     2    1
     3    11     2    1
     4     2     4    1
     5    12     3    1
     6     6     1    1
     7     4     3    1
     8     4     1    1
     9     4    13    1
    10     3     5    2
    11     8     1    1
    12     1     7    1
