@<TRIPOS>MOLECULE
AMSSMXHTRODKSM-FYYFNCOUSA-J	11070890	-4529.160459522702
 123 125 0 0 0
SMALL
MULLIKEN NwChem

@<TRIPOS>ATOM
      1 C          -4.6394   -3.6458    0.7691 C.3     1  LIG1      -0.46999999999999975
      2 C          -1.8425   -0.0814   -0.4467 C.3     1  LIG1      -0.45999999999999996
      3 C          -1.2653    1.4345   -2.3721 C.3     1  LIG1      -0.46999999999999975
      4 C          -5.6729   -3.3459   -0.3226 C.3     1  LIG1      -0.2599999999999998
      5 C          -5.4204   -1.9891   -0.9902 C.3     1  LIG1      -0.2999999999999998
      6 C          -6.3369   -1.7314   -2.2029 C.3     1  LIG1      -0.3099999999999996
      7 C          -5.9074   -0.5092   -2.9710 C.2     1  LIG1      -0.1200000000000001
      8 C          -5.4075   -0.4892   -4.2139 C.2     1  LIG1      -0.13999999999999968
      9 C          -5.2222   -1.6928   -5.1094 C.3     1  LIG1      -0.3099999999999996
     10 C          -3.9186   -2.4730   -4.8204 C.3     1  LIG1      -0.28000000000000025
     11 C          -3.8529   -3.8244   -5.5517 C.3     1  LIG1      -0.2699999999999996
     12 C          -4.7225   -4.9232   -4.9073 C.3     1  LIG1      -0.2599999999999998
     13 C          -4.1223   -5.4591   -3.6023 C.3     1  LIG1      -0.33000000000000007
     14 C          -5.0376   -6.4439   -2.8676 C.3     1  LIG1      -0.2699999999999996
     15 C          -4.3646   -7.0548   -1.6111 C.3     1  LIG1      -0.33999999999999986
     16 C          -3.5198   -8.2655   -1.9012 C.2     1  LIG1      -0.09999999999999964
     17 C          -3.6676   -9.4136   -1.2140 C.2     1  LIG1      -0.20999999999999996
     18 C          -0.0098   -5.4100   -3.8759 C.3     1  LIG1       -0.3200000000000003
     19 C          -0.5512   -4.6194   -2.6648 C.3     1  LIG1       -0.13999999999999968
     20 C           0.2711   -9.0912   -3.3786 C.3     1  LIG1       -0.11000000000000032
     21 C          -0.3594   -9.3320   -1.9888 C.3     1  LIG1       -0.4400000000000004
     22 C           0.7049    4.5919    1.8887 C.3     1  LIG1       -0.07000000000000028
     23 C           0.4324   -0.1974   -1.5291 C.3     1  LIG1       -0.04999999999999982
     24 C           4.9094    7.1951    7.8895 C.ar    1  LIG1       0.15000000000000036
     25 C           4.3220    4.7417    4.3330 C.ar    1  LIG1       0.17999999999999972
     26 C           0.5049    5.4209    3.1547 C.3     1  LIG1       0.1200000000000001
     27 C          -0.3079   -6.9071   -3.7655 C.2     1  LIG1       0.46999999999999975
     28 C          -2.9975  -10.7235   -1.3775 C.2     1  LIG1       0.2699999999999996
     29 C           5.4791    5.4244    5.9871 C.ar    1  LIG1       0.1900000000000004
     30 C           2.1595    7.1049    3.4658 C.3     1  LIG1       0.09999999999999964
     31 C           0.6868    6.9479    3.0162 C.3     1  LIG1       0.05999999999999961
     32 C          -1.5918   -1.0186   -2.8052 C.3     1  LIG1       0.08000000000000007
     33 C           6.4302    5.7392    6.9671 C.ar    1  LIG1       0.4400000000000004
     34 C           4.2516    6.1034    6.0765 C.ar    1  LIG1          0.54
     35 C          -1.5664   -2.5083   -2.3486 C.2     1  LIG1       0.5300000000000002
     36 C           2.1868    6.1041    4.6257 C.3     1  LIG1       0.28000000000000025
     37 C          -1.0666    0.0301   -1.7700 C.3     1  LIG1       0.05999999999999961
     38 N           7.6682    5.1197    6.9965 N.pl3   1  LIG1      -0.7800000000000002
     39 N           0.7102   -7.7140   -3.4932 N.am    1  LIG1      -0.6100000000000003
     40 N          -0.6035   -3.1888   -2.9280 N.am    1  LIG1      -0.6100000000000003
     41 N           6.1396    6.6409    7.9208 N.ar    1  LIG1        -0.54
     42 N           3.9175    6.9947    7.0236 N.ar    1  LIG1        -0.54
     43 N           5.5052    4.5781    4.8975 N.ar    1  LIG1      -0.5800000000000001
     44 N           3.5203    5.6511    5.0065 N.ar    1  LIG1      -0.5300000000000002
     45 O          -1.5311   -7.2560   -3.9297 O.2     1  LIG1      -0.6400000000000006
     46 O          -3.6090  -11.7600   -1.1288 O.2     1  LIG1      -0.5199999999999996
     47 O           2.5938    8.3807    3.8770 O.3     1  LIG1      -0.7100000000000009
     48 O          -0.8881   -0.8997   -4.0415 O.3     1  LIG1      -0.7100000000000009
     49 O          -2.4791   -2.8988   -1.5471 O.2     1  LIG1      -0.6699999999999999
     50 O          -1.7349    9.6394    4.2665 O.3     1  LIG1      -0.6600000000000001
     51 O           0.5836    9.8050    2.9931 O.2     1  LIG1      -0.7400000000000002
     52 O           0.4719    9.3769    5.5374 O.3     1  LIG1      -0.7400000000000002
     53 O           3.9264    4.8572   -0.2334 O.2     1  LIG1      -0.6300000000000008
     54 O           3.4294    3.2077    1.7734 O.3     1  LIG1      -0.7300000000000004
     55 O           3.2325    0.9443    0.4998 O.3     1  LIG1      -0.7200000000000006
     56 O           3.0093    1.2866   -2.0780 O.2     1  LIG1      -0.6199999999999992
     57 O           1.7905    5.0803    1.1050 O.3     1  LIG1      -0.5600000000000005
     58 O           0.9298    0.8064   -0.5903 O.3     1  LIG1      -0.5399999999999991
     59 O           1.4485    4.9920    4.1768 O.3     1  LIG1      -0.5500000000000007
     60 O          -0.2420    7.5542    3.9137 O.3     1  LIG1      -0.6199999999999992
     61 O           2.0363    3.0236   -0.3503 O.3     1  LIG1      -0.6600000000000001
     62 P          -0.3125    9.2285    4.0873 P.3     1  LIG1       1.1199999999999992
     63 P           2.9778    4.0649    0.5920 P.3     1  LIG1       1.2200000000000006
     64 P           2.3831    1.4802   -0.7471 P.3     1  LIG1       1.1999999999999993
     65 S          -1.2670  -10.9566   -1.8564 S.3     1  LIG1      0.02999999999999936
     66 H          -4.8186   -4.6231    1.2392 H       1  LIG1          0.13
     67 H          -4.6682   -2.8825    1.5592 H       1  LIG1          0.13
     68 H          -3.6382   -3.6392    0.3242 H       1  LIG1       0.16000000000000003
     69 H          -2.9100    0.1121   -0.6119 H       1  LIG1          0.14
     70 H          -1.4596    0.6521    0.2729 H       1  LIG1          0.14
     71 H          -1.7630   -1.0877   -0.0264 H       1  LIG1          0.14
     72 H          -0.7710    1.4985   -3.3467 H       1  LIG1          0.14
     73 H          -0.8477    2.2040   -1.7137 H       1  LIG1       0.15000000000000002
     74 H          -2.3355    1.6388   -2.5158 H       1  LIG1          0.14
     75 H          -5.6033   -4.1259   -1.0932 H       1  LIG1          0.14
     76 H          -6.6994   -3.3953    0.0823 H       1  LIG1          0.12
     77 H          -4.3706   -1.9742   -1.3109 H       1  LIG1       0.18999999999999995
     78 H          -5.5484   -1.1800   -0.2534 H       1  LIG1          0.12
     79 H          -6.3117   -2.6136   -2.8530 H       1  LIG1       0.15000000000000002
     80 H          -7.3824   -1.6232   -1.8629 H       1  LIG1          0.13
     81 H          -5.9330    0.4281   -2.4105 H       1  LIG1          0.13
     82 H          -5.0408    0.4620   -4.6018 H       1  LIG1          0.13
     83 H          -5.2240   -1.3718   -6.1626 H       1  LIG1          0.13
     84 H          -6.0790   -2.3716   -5.0015 H       1  LIG1       0.15000000000000002
     85 H          -3.0500   -1.8554   -5.0774 H       1  LIG1          0.13
     86 H          -3.8339   -2.6414   -3.7431 H       1  LIG1       0.16000000000000003
     87 H          -2.8124   -4.1726   -5.5592 H       1  LIG1          0.13
     88 H          -4.1476   -3.6849   -6.6065 H       1  LIG1          0.12
     89 H          -5.7427   -4.5394   -4.7323 H       1  LIG1          0.13
     90 H          -4.8336   -5.7602   -5.6157 H       1  LIG1          0.12
     91 H          -3.8803   -4.6323   -2.9213 H       1  LIG1          0.14
     92 H          -3.1689   -5.9551   -3.8285 H       1  LIG1       0.18000000000000005
     93 H          -5.3527   -7.2563   -3.5418 H       1  LIG1          0.13
     94 H          -5.9612   -5.9317   -2.5564 H       1  LIG1          0.14
     95 H          -5.1171   -7.3016   -0.8472 H       1  LIG1       0.15000000000000002
     96 H          -3.7142   -6.2803   -1.1760 H       1  LIG1       0.17000000000000004
     97 H          -2.7825   -8.1437   -2.7052 H       1  LIG1       0.21999999999999997
     98 H          -4.4596   -9.4877   -0.4648 H       1  LIG1       0.16000000000000003
     99 H           1.0654   -5.2312   -3.9951 H       1  LIG1       0.10999999999999999
    100 H          -0.5202   -5.0337   -4.7737 H       1  LIG1          0.12
    101 H           0.0999   -4.8320   -1.7981 H       1  LIG1       0.10999999999999999
    102 H          -1.5425   -5.0093   -2.3990 H       1  LIG1          0.13
    103 H           1.1324   -9.7715   -3.4933 H       1  LIG1       0.10999999999999999
    104 H          -0.4825   -9.3667   -4.1363 H       1  LIG1       0.09999999999999998
    105 H           0.4044   -9.3393   -1.2047 H       1  LIG1       0.18999999999999995
    106 H          -1.0622   -8.5331   -1.7686 H       1  LIG1       0.19999999999999996
    107 H           0.8658    3.5484    2.1797 H       1  LIG1       0.18000000000000005
    108 H          -0.2066    4.6480    1.2790 H       1  LIG1       0.18000000000000005
    109 H           0.6068   -1.1835   -1.0873 H       1  LIG1       0.16000000000000003
    110 H           0.9849   -0.1241   -2.4677 H       1  LIG1       0.16000000000000003
    111 H           4.7068    7.9129    8.6837 H       1  LIG1       0.17000000000000004
    112 H           3.9668    4.2211    3.4421 H       1  LIG1          0.25
    113 H          -0.5038    5.2268    3.5369 H       1  LIG1       0.18000000000000005
    114 H           2.7897    6.7104    2.6561 H       1  LIG1       0.18000000000000005
    115 H           0.5379    7.3038    1.9924 H       1  LIG1       0.18000000000000005
    116 H          -2.6499   -0.7657   -2.9711 H       1  LIG1       0.10999999999999999
    117 H           1.7491    6.5675    5.5187 H       1  LIG1       0.18000000000000005
    118 H           8.3814    5.6615    7.4684 H       1  LIG1          0.37
    119 H           7.9494    4.7292    6.1047 H       1  LIG1          0.37
    120 H           1.3826    9.0508    5.3841 H       1  LIG1       0.43999999999999995
    121 H          -0.4217   -1.7809   -4.0552 H       1  LIG1          0.39
    122 H           2.0209    9.0456    3.3829 H       1  LIG1       0.43999999999999995
    123 H           3.3895    1.6953    1.1598 H       1  LIG1           0.48
@<TRIPOS>BOND
     1    88    11    1
     2    83     9    1
     3    90    12    1
     4    87    11    1
     5    11    12    1
     6    11    10    1
     7     9    84    1
     8     9    10    1
     9     9     8    1
    10    85    10    1
    11    12    89    1
    12    12    13    1
    13    10    86    1
    14   100    18    1
    15    82     8    1
    16     8     7    2
    17   104    20    1
    18   121    48    1
    19    48    32    1
    20    99    18    1
    21    45    27    2
    22    18    27    1
    23    18    19    1
    24    92    13    1
    25    27    39   am
    26    13    91    1
    27    13    14    1
    28    93    14    1
    29   103    20    1
    30    39    20    1
    31    20    21    1
    32    72     3    1
    33   116    32    1
    34     7    81    1
    35     7     6    1
    36    40    19    1
    37    40    35   am
    38    14    94    1
    39    14    15    1
    40    79     6    1
    41    32    35    1
    42    32    37    1
    43    97    16    1
    44    19   102    1
    45    19   101    1
    46    74     3    1
    47   110    23    1
    48     3    37    1
    49     3    73    1
    50    35    49    2
    51     6    80    1
    52     6     5    1
    53    56    64    2
    54    21    65    1
    55    21   106    1
    56    21   105    1
    57    16    15    1
    58    16    17    2
    59    65    28    1
    60    37    23    1
    61    37     2    1
    62    15    96    1
    63    15    95    1
    64    23   109    1
    65    23    58    1
    66    28    17    1
    67    28    46    2
    68    77     5    1
    69    17    98    1
    70    75     4    1
    71     5     4    1
    72     5    78    1
    73    64    58    1
    74    64    61    1
    75    64    55    1
    76    69     2    1
    77     2    71    1
    78     2    70    1
    79    61    63    1
    80     4    76    1
    81     4     1    1
    82    53    63    2
    83    68     1    1
    84    55   123    1
    85    63    57    1
    86    63    54    1
    87     1    66    1
    88     1    67    1
    89    57    22    1
    90   108    22    1
    91    22   107    1
    92    22    26    1
    93   115    31    1
    94   114    30    1
    95    51    62    2
    96    31    26    1
    97    31    30    1
    98    31    60    1
    99    26   113    1
   100    26    59    1
   101   122    47    1
   102   112    25    1
   103    30    47    1
   104    30    36    1
   105    60    62    1
   106    62    50    1
   107    62    52    1
   108    59    36    1
   109    25    43   ar
   110    25    44   ar
   111    36    44    1
   112    36   117    1
   113    43    29   ar
   114    44    34   ar
   115   120    52    1
   116    29    34   ar
   117    29    33   ar
   118    34    42   ar
   119   119    38    1
   120    33    38    1
   121    33    41   ar
   122    38   118    1
   123    42    24   ar
   124    24    41   ar
   125    24   111    1
