@<TRIPOS>MOLECULE
ANKZYBDXHMZBDK-SCRDCRAPSA-K	11070891	-1896.715776356507
 50 52 0 0 0
SMALL
MULLIKEN NwChem

@<TRIPOS>ATOM
      1 C          -1.9788    5.2891   -0.5598 C.3     1  LIG1      -0.5499999999999998
      2 C           0.5011    4.1702    0.6105 C.3     1  LIG1      -0.5999999999999996
      3 C          -2.6868    2.9362   -1.0787 C.ar    1  LIG1        -0.25
      4 C          -0.3581    1.8839    0.0772 C.ar    1  LIG1      -0.28000000000000025
      5 C          -0.1611   -0.9966    0.4863 C.3     1  LIG1       -0.23000000000000043
      6 C           4.2320   -0.9488    1.9876 C.3     1  LIG1       -0.05999999999999961
      7 C          -1.7532    3.7965   -0.5319 C.ar    1  LIG1      0.13999999999999968
      8 C          -0.5621    3.2591    0.0453 C.ar    1  LIG1      0.11000000000000032
      9 C          -2.4991    1.5357   -1.0667 C.ar    1  LIG1       0.28000000000000025
     10 C          -1.3225    1.0194   -0.4585 C.ar    1  LIG1       0.34999999999999964
     11 C           1.1689   -1.3342   -0.1682 C.3     1  LIG1       0.11000000000000032
     12 C           3.5910   -1.5552    0.7104 C.3     1  LIG1       0.09999999999999964
     13 C          -3.2412   -0.5538   -1.6666 C.2     1  LIG1       0.1900000000000004
     14 C           2.1088   -2.0415    0.8716 C.3     1  LIG1       0.09999999999999964
     15 C          -2.0454   -1.1432   -1.1080 C.3     1  LIG1       0.6900000000000004
     16 C          -4.2789   -1.4908   -2.2840 C.2     1  LIG1          0.54
     17 C          -2.8119   -3.3230   -1.9746 C.2     1  LIG1       0.6799999999999997
     18 N          -3.4556    0.7354   -1.6283 N.2     1  LIG1      -0.5800000000000001
     19 N          -1.8744   -2.4621   -1.2390 N.am    1  LIG1      -0.7400000000000002
     20 N          -3.9728   -2.8096   -2.4061 N.am    1  LIG1      -0.6399999999999997
     21 N          -1.1697   -0.3715   -0.4226 N.pl3   1  LIG1      -0.5800000000000001
     22 O           0.8937   -2.2235   -1.2873 O.3     1  LIG1      -0.6899999999999995
     23 O           4.3230   -2.7418    0.2856 O.3     1  LIG1      -0.6999999999999993
     24 O           1.6147   -2.0214    2.1814 O.3     1  LIG1      -0.7200000000000006
     25 O          -5.3494   -0.9988   -2.6492 O.2     1  LIG1      -0.5899999999999999
     26 O          -2.4151   -4.4796   -2.1106 O.2     1  LIG1      -0.5899999999999999
     27 O           2.4508    1.2927    0.4004 O.2     1  LIG1      -0.7699999999999996
     28 O           1.7084    0.4493    2.7045 O.3     1  LIG1      -0.8000000000000007
     29 O           3.0369    2.6840    2.5081 O.3     1  LIG1      -0.7400000000000002
     30 O           4.2252    0.4524    2.0658 O.3     1  LIG1      -0.6199999999999992
     31 P           2.7439    1.3212    1.9201 P.3     1  LIG1       1.1099999999999994
     32 H          -1.1711    5.8066   -1.0939 H       1  LIG1       0.18000000000000005
     33 H          -1.9973    5.7111    0.4538 H       1  LIG1       0.18000000000000005
     34 H          -2.9264    5.5392   -1.0498 H       1  LIG1       0.17000000000000004
     35 H           0.0778    4.8267    1.3845 H       1  LIG1       0.18000000000000005
     36 H           0.8995    4.8307   -0.1742 H       1  LIG1       0.18000000000000005
     37 H           1.3364    3.6142    1.0513 H       1  LIG1       0.19999999999999996
     38 H          -3.5983    3.3048   -1.5422 H       1  LIG1       0.17000000000000004
     39 H           0.6187    1.5204    0.4298 H       1  LIG1          0.25
     40 H           0.0380   -0.2983    1.3023 H       1  LIG1       0.21999999999999997
     41 H          -0.6270   -1.8913    0.9056 H       1  LIG1       0.19999999999999996
     42 H           5.2946   -1.2562    1.9753 H       1  LIG1          0.13
     43 H           3.7726   -1.4145    2.8713 H       1  LIG1          0.13
     44 H           1.6262   -0.4066   -0.5241 H       1  LIG1       0.18000000000000005
     45 H           3.6547   -0.7865   -0.0687 H       1  LIG1          0.14
     46 H           2.1146   -3.1004    0.5716 H       1  LIG1          0.14
     47 H          -0.9350   -2.8466   -1.1137 H       1  LIG1          0.39
     48 H           1.7359   -2.6423   -1.5220 H       1  LIG1       0.43999999999999995
     49 H           5.2412   -2.4510    0.1676 H       1  LIG1       0.42000000000000004
     50 H           1.6580   -1.0260    2.4872 H       1  LIG1       0.44999999999999996
@<TRIPOS>BOND
     1    25    16    2
     2    20    16   am
     3    20    17   am
     4    16    13    1
     5    26    17    2
     6    17    19   am
     7    13    18    2
     8    13    15    1
     9    18     9    1
    10    38     3    1
    11    48    22    1
    12    22    11    1
    13    19    47    1
    14    19    15    1
    15    15    21    1
    16    32     1    1
    17     3     9   ar
    18     3     7   ar
    19     9    10   ar
    20    34     1    1
    21     1     7    1
    22     1    33    1
    23     7     8   ar
    24    44    11    1
    25    10    21    1
    26    10     4   ar
    27    21     5    1
    28    36     2    1
    29    11     5    1
    30    11    14    1
    31    45    12    1
    32     8     4   ar
    33     8     2    1
    34     4    39    1
    35    49    23    1
    36    23    12    1
    37    27    31    2
    38     5    41    1
    39     5    40    1
    40    46    14    1
    41     2    37    1
    42     2    35    1
    43    12    14    1
    44    12     6    1
    45    14    24    1
    46    31    30    1
    47    31    29    1
    48    31    28    1
    49    42     6    1
    50     6    30    1
    51     6    43    1
    52    24    50    1
