@<TRIPOS>MOLECULE
AQIVLFLYHYFRKU-VPENINKCSA-L	11070893	-1605.344129193058
 36 38 0 0 0
SMALL
MULLIKEN NwChem

@<TRIPOS>ATOM
      1 C           0.1188   -2.5887    0.2871 C.3     1  LIG1       -0.29000000000000004
      2 C           1.6424    0.6508   -0.3445 C.3     1  LIG1       -0.05999999999999961
      3 C           1.2152   -1.8608   -0.4833 C.3     1  LIG1       0.08000000000000007
      4 C           1.5678   -0.6672    0.4254 C.3     1  LIG1       0.09999999999999964
      5 C          -0.5967   -1.4067    0.9465 C.3     1  LIG1       0.1900000000000004
      6 C          -3.1570    0.6360   -0.4741 C.2     1  LIG1       0.08999999999999986
      7 C          -2.3172    0.2972    0.5418 C.3     1  LIG1       0.5300000000000002
      8 C          -4.2030    1.6439   -0.1943 C.2     1  LIG1       0.4500000000000002
      9 C          -3.2970    1.8832    2.0319 C.2     1  LIG1          0.54
     10 C          -1.8703   -0.9317   -1.3479 C.2     1  LIG1       0.6500000000000004
     11 N          -3.1428    2.4787    3.1979 N.pl3   1  LIG1      -0.8300000000000001
     12 N          -2.8738   -0.1179   -1.6292 N.am    1  LIG1      -0.7199999999999998
     13 N          -2.3931    0.7865    1.8307 N.pl3   1  LIG1      -0.7199999999999998
     14 N          -4.1980    2.2027    1.0743 N.am    1  LIG1       -0.6799999999999997
     15 N          -1.4654   -0.6998    0.0859 N.am    1  LIG1      -0.5700000000000003
     16 O           2.4166   -2.6577   -0.7191 O.3     1  LIG1      -0.6799999999999997
     17 O          -5.0488    1.9800   -1.0473 O.2     1  LIG1      -0.6899999999999995
     18 O          -1.2498   -1.7864   -2.0479 O.2     1  LIG1      -0.6999999999999993
     19 O           4.4811    1.0756    0.3373 O.3     1  LIG1      -0.6899999999999995
     20 O           4.5334   -1.0682   -0.9594 O.3     1  LIG1      -0.7200000000000006
     21 O           5.0275    1.1716   -2.1979 O.2     1  LIG1      -0.6099999999999994
     22 O           2.6396    0.6046   -1.4095 O.3     1  LIG1      -0.5600000000000005
     23 O           0.5465   -0.5789    1.4075 O.3     1  LIG1      -0.5399999999999991
     24 P           4.2208    0.4788   -1.1668 P.3     1  LIG1       1.1799999999999997
     25 H          -0.5328   -3.1503   -0.3824 H       1  LIG1       0.17000000000000004
     26 H           0.5646   -3.2173    1.0677 H       1  LIG1       0.16000000000000003
     27 H           1.8713    1.4778    0.3334 H       1  LIG1       0.18000000000000005
     28 H           0.6904    0.8362   -0.8436 H       1  LIG1       0.18999999999999995
     29 H           0.7897   -1.5407   -1.4401 H       1  LIG1       0.18999999999999995
     30 H           2.5236   -0.8551    0.9375 H       1  LIG1       0.16000000000000003
     31 H          -1.1022   -1.6587    1.8872 H       1  LIG1       0.17000000000000004
     32 H          -3.8406    3.2296    3.1974 H       1  LIG1          0.25
     33 H          -1.5404    0.8578    2.3732 H       1  LIG1       0.33999999999999997
     34 H           2.2459   -3.1623   -1.5294 H       1  LIG1       0.44999999999999996
     35 H           4.6861    2.0199    0.2484 H       1  LIG1          0.47
     36 H           3.7245   -1.6604   -0.9050 H       1  LIG1           0.49
@<TRIPOS>BOND
     1    21    24    2
     2    18    10    2
     3    12    10    1
     4    12     6    2
     5    34    16    1
     6    29     3    1
     7    22    24    1
     8    22     2    1
     9    10    15   am
    10    24    20    1
    11    24    19    1
    12    17     8    2
    13    20    36    1
    14    28     2    1
    15    16     3    1
    16     3     1    1
    17     3     4    1
    18     6     8    1
    19     6     7    1
    20    25     1    1
    21     2    27    1
    22     2     4    1
    23     8    14    1
    24    15     7    1
    25    15     5    1
    26    35    19    1
    27     1     5    1
    28     1    26    1
    29     4    30    1
    30     4    23    1
    31     7    13    1
    32     5    23    1
    33     5    31    1
    34    14     9    2
    35    13     9    1
    36    13    33    1
    37     9    11    1
    38    32    11    1
