@<TRIPOS>MOLECULE
AQLMHYSWFMLWBS-UHFFFAOYSA-N	6044296	-2462.5805609972
 6 5 0 0 0
SMALL
MULLIKEN NwChem

@<TRIPOS>ATOM
      1 AS         -0.3426   -0.3179   -0.8723 As      1  LIG1       0.6000000000000014
      2 O          -0.5671   -1.4319    0.6332 O.3     1  LIG1       -0.7699999999999996
      3 O          -0.9722    1.3054   -0.1468 O.3     1  LIG1       -0.7799999999999994
      4 O           1.3079   -0.0373   -0.7429 O.3     1  LIG1       -0.8000000000000007
      5 H           0.3010   -1.2758    1.0517 H       1  LIG1          0.37
      6 H          -0.1300    1.6261    0.2288 H       1  LIG1           0.38
@<TRIPOS>BOND
     1     1     4    1
     2     1     3    1
     3     1     2    1
     4     3     6    1
     5     2     5    1
