@<TRIPOS>MOLECULE
ARGXEXVCHMNAQU-UHFFFAOYSA-N	6044297	-1393.8594287774845
 34 33 0 0 0
SMALL
MULLIKEN NwChem

@<TRIPOS>ATOM
      1 C           1.3867   -3.5895   -1.7400 C.3     1  LIG1       -0.5300000000000002
      2 C           0.7618    1.2292   -1.3055 C.3     1  LIG1      -0.2699999999999996
      3 C          -0.7113    1.2985   -1.7433 C.3     1  LIG1      -0.28000000000000025
      4 C           1.0736    1.0850    0.1949 C.3     1  LIG1      -0.2699999999999996
      5 C          -1.5647    2.3617   -1.0192 C.3     1  LIG1      -0.33999999999999986
      6 C          -0.7284   -0.5130    1.1736 C.3     1  LIG1        -0.25
      7 C          -1.0621   -1.8095    1.9170 C.3     1  LIG1      -0.4299999999999997
      8 C           0.7534   -2.3521   -1.1261 C.2     1  LIG1       0.29000000000000004
      9 C           0.7627   -0.2419    0.9168 C.3     1  LIG1       -0.2699999999999996
     10 C          -0.9912    3.7520   -1.1756 C.3     1  LIG1       0.4900000000000002
     11 N          -1.0538    4.5340   -2.1780 N.3     1  LIG1      -0.7000000000000002
     12 O          -0.3173   -1.9137   -1.4911 O.2     1  LIG1      -0.46000000000000085
     13 O          -0.2797    4.1356   -0.0820 O.3     1  LIG1      -0.5999999999999996
     14 S          -0.2561   -2.0234    3.5651 S.3     1  LIG1      -0.1700000000000017
     15 S           1.7350   -1.6730    0.2172 S.3     1  LIG1      0.0600000000000005
     16 H           1.0000   -3.7103   -2.7548 H       1  LIG1       0.19999999999999996
     17 H           1.0972   -4.4662   -1.1484 H       1  LIG1       0.20999999999999996
     18 H           2.4789   -3.5355   -1.7542 H       1  LIG1       0.19999999999999996
     19 H           1.2594    2.1498   -1.6376 H       1  LIG1          0.14
     20 H           1.2438    0.4107   -1.8537 H       1  LIG1       0.15000000000000002
     21 H          -0.7303    1.5172   -2.8195 H       1  LIG1          0.14
     22 H          -1.1865    0.3223   -1.6259 H       1  LIG1       0.17000000000000004
     23 H           0.5729    1.8854    0.7537 H       1  LIG1       0.16000000000000003
     24 H           2.1481    1.2695    0.3168 H       1  LIG1       0.15000000000000002
     25 H          -2.5772    2.3530   -1.4387 H       1  LIG1       0.17000000000000004
     26 H          -1.6523    2.1266    0.0455 H       1  LIG1       0.17000000000000004
     27 H          -1.0920    0.3396    1.7624 H       1  LIG1       0.17000000000000004
     28 H          -1.2817   -0.5268    0.2344 H       1  LIG1       0.18999999999999995
     29 H          -2.1354   -1.8381    2.1285 H       1  LIG1       0.19999999999999996
     30 H          -0.8337   -2.6831    1.3013 H       1  LIG1       0.19999999999999996
     31 H           1.2374   -0.1736    1.9037 H       1  LIG1       0.19999999999999996
     32 H          -1.6132    4.1216   -2.9260 H       1  LIG1       0.31999999999999995
     33 H           0.0845    5.0149   -0.2980 H       1  LIG1       0.43000000000000005
     34 H           0.9622   -2.3712    3.0960 H       1  LIG1           0.14
@<TRIPOS>BOND
     1    32    11    1
     2    21     3    1
     3    16     1    1
     4    11    10    1
     5    20     2    1
     6    18     1    1
     7     3    22    1
     8     3     2    1
     9     3     5    1
    10     1    17    1
    11     1     8    1
    12    19     2    1
    13    12     8    2
    14    25     5    1
    15     2     4    1
    16    10     5    1
    17    10    13    1
    18     8    15    1
    19     5    26    1
    20    33    13    1
    21     4    24    1
    22     4    23    1
    23     4     9    1
    24    15     9    1
    25    28     6    1
    26     9     6    1
    27     9    31    1
    28     6    27    1
    29     6     7    1
    30    30     7    1
    31     7    29    1
    32     7    14    1
    33    34    14    1
