@<TRIPOS>MOLECULE
ARQUZFJQPYWSSL-NBLUIMTHSA-J	11070895	-4372.010955365453
 111 113 0 0 0
SMALL
MULLIKEN NwChem

@<TRIPOS>ATOM
      1 C          -0.2687    0.7025    0.2265 C.3     1  LIG1      -0.4800000000000004
      2 C          -3.6927   -0.6004   -5.2933 C.3     1  LIG1      -0.4500000000000002
      3 C          -1.3626   -1.5025   -5.1124 C.3     1  LIG1      -0.4800000000000004
      4 C           1.0878    1.1561   -0.3268 C.3     1  LIG1        -0.25
      5 C           1.2728    2.6696   -0.5566 C.3     1  LIG1      -0.2699999999999996
      6 C           0.5347    3.3120   -1.7493 C.3     1  LIG1      -0.2699999999999996
      7 C          -0.9924    3.4653   -1.6468 C.3     1  LIG1      -0.28000000000000025
      8 C          -1.5066    4.1810   -0.3748 C.3     1  LIG1      -0.33000000000000007
      9 C          -0.9410    5.5575   -0.1772 C.2     1  LIG1      -0.09999999999999964
     10 C          -1.6538    6.6834    0.0068 C.2     1  LIG1      -0.16999999999999993
     11 C          -1.1262    8.0456    0.1617 C.2     1  LIG1      -0.16999999999999993
     12 C          -0.0743    8.6057   -0.4652 C.2     1  LIG1      -0.11000000000000032
     13 C           0.7624    7.9385   -1.5165 C.3     1  LIG1       -0.40000000000000036
     14 C          -0.3108    4.3830   -5.6494 C.3     1  LIG1       -0.34999999999999964
     15 C          -0.1458    2.9282   -6.1502 C.3     1  LIG1       -0.1299999999999999
     16 C           2.2105    5.6860   -5.1976 C.3     1  LIG1       -0.15000000000000036
     17 C           1.7476    6.4125   -3.9131 C.3     1  LIG1       -0.4299999999999997
     18 C           1.0985   -2.4520    2.7534 C.3     1  LIG1       -0.05999999999999961
     19 C          -3.0343   -1.6341   -3.1741 C.3     1  LIG1       -0.05999999999999961
     20 C           2.6268    0.7755    6.1645 C.ar    1  LIG1       0.15000000000000036
     21 C           3.5316   -3.1256    7.8355 C.ar    1  LIG1       0.21999999999999975
     22 C           1.4377   -3.7019    3.5758 C.3     1  LIG1       0.08999999999999986
     23 C           0.3014    5.4428   -6.6172 C.2     1  LIG1       0.46999999999999975
     24 C           1.2797    8.9101   -2.5868 C.2     1  LIG1       0.28000000000000025
     25 C           3.6111   -1.0146    7.8690 C.ar    1  LIG1       0.20000000000000018
     26 C           0.6775   -3.5197    5.8398 C.3     1  LIG1       0.1299999999999999
     27 C           0.3188   -4.2012    4.5024 C.3     1  LIG1       0.03000000000000025
     28 C          -1.9724    0.6033   -3.8363 C.3     1  LIG1       0.08999999999999986
     29 C           3.7394    0.3572    8.1329 C.ar    1  LIG1       0.4400000000000004
     30 C           2.9397   -1.3590    6.6801 C.ar    1  LIG1       0.5300000000000002
     31 C          -1.7941    1.6742   -4.9701 C.2     1  LIG1          0.54
     32 C           2.2085   -3.6480    5.7629 C.3     1  LIG1       0.28000000000000025
     33 C          -2.4854   -0.7784   -4.3463 C.3     1  LIG1       0.05999999999999961
     34 N           4.3944    0.8177    9.2659 N.pl3   1  LIG1      -0.7800000000000002
     35 N           1.4826    6.0425   -6.3766 N.am    1  LIG1      -0.6100000000000003
     36 N          -0.5087    1.9249   -5.1601 N.am    1  LIG1      -0.6299999999999999
     37 N           3.2392    1.2523    7.2724 N.ar    1  LIG1        -0.54
     38 N           2.4323   -0.4881    5.7958 N.ar    1  LIG1      -0.5300000000000002
     39 N           3.9753   -2.1385    8.5895 N.ar    1  LIG1      -0.5800000000000001
     40 N           2.9134   -2.7376    6.6739 N.ar    1  LIG1      -0.5099999999999998
     41 O          -0.3764    5.6738   -7.6492 O.2     1  LIG1      -0.7200000000000006
     42 O           1.3576   10.1158   -2.3819 O.2     1  LIG1         -0.5
     43 O           0.1725   -4.0387    7.0301 O.3     1  LIG1      -0.7300000000000004
     44 O          -0.7045    0.4775   -3.1757 O.3     1  LIG1      -0.7100000000000009
     45 O          -2.8195    2.1389   -5.5301 O.2     1  LIG1      -0.7100000000000009
     46 O          -1.4276   -5.9880    6.3371 O.3     1  LIG1      -0.7300000000000004
     47 O          -0.5429   -7.9519    4.8364 O.2     1  LIG1      -0.6600000000000001
     48 O          -1.9742   -5.9759    3.8608 O.3     1  LIG1        -0.75
     49 O          -1.1292   -4.8899    1.4462 O.3     1  LIG1      -0.6500000000000004
     50 O           1.1278   -4.0940    0.3253 O.2     1  LIG1      -0.6899999999999995
     51 O           0.2373   -1.7080   -1.9858 O.3     1  LIG1        -0.75
     52 O          -1.0949   -3.8720   -2.6284 O.2     1  LIG1      -0.6400000000000006
     53 O          -0.1207   -2.6002    2.0375 O.3     1  LIG1      -0.5800000000000001
     54 O          -2.2723   -1.6397   -1.9621 O.3     1  LIG1      -0.5800000000000001
     55 O           2.5846   -3.3888    4.4400 O.3     1  LIG1      -0.5500000000000007
     56 O           0.4457   -5.6153    4.6088 O.3     1  LIG1      -0.6199999999999992
     57 O          -1.1609   -2.9063   -0.1853 O.3     1  LIG1      -0.6199999999999992
     58 P          -0.9280   -6.5121    4.9911 P.3     1  LIG1          1.08
     59 P          -0.2262   -3.8197    0.8976 P.3     1  LIG1       1.1799999999999997
     60 P          -1.0221   -2.6703   -1.7573 P.3     1  LIG1       1.2400000000000002
     61 S           1.7538    8.2510   -4.1746 S.3     1  LIG1      0.07000000000000028
     62 H          -1.0528    0.7713   -0.5311 H       1  LIG1       0.16000000000000003
     63 H          -0.5624    1.3079    1.0972 H       1  LIG1          0.14
     64 H          -0.2271   -0.3430    0.5475 H       1  LIG1       0.15000000000000002
     65 H          -4.4473    0.0618   -4.8564 H       1  LIG1          0.14
     66 H          -4.1524   -1.5800   -5.5002 H       1  LIG1          0.14
     67 H          -3.3864   -0.1382   -6.2325 H       1  LIG1       0.15000000000000002
     68 H          -0.9698   -0.8377   -5.8904 H       1  LIG1          0.14
     69 H          -1.7464   -2.4199   -5.5774 H       1  LIG1       0.15000000000000002
     70 H          -0.5337   -1.7854   -4.4639 H       1  LIG1       0.15000000000000002
     71 H           1.8706    0.8320    0.3750 H       1  LIG1          0.12
     72 H           1.2823    0.6218   -1.2629 H       1  LIG1          0.13
     73 H           2.3472    2.8513   -0.7164 H       1  LIG1          0.13
     74 H           1.0251    3.2064    0.3742 H       1  LIG1          0.13
     75 H           0.7334    2.7371   -2.6599 H       1  LIG1          0.13
     76 H           0.9769    4.3046   -1.9246 H       1  LIG1          0.14
     77 H          -1.4524    2.4762   -1.6982 H       1  LIG1       0.17000000000000004
     78 H          -1.3383    4.0093   -2.5345 H       1  LIG1          0.13
     79 H          -1.2471    3.5623    0.4968 H       1  LIG1       0.16000000000000003
     80 H          -2.6035    4.2324   -0.4041 H       1  LIG1          0.14
     81 H           0.1460    5.6232   -0.1688 H       1  LIG1       0.15000000000000002
     82 H          -2.7420    6.5941    0.0640 H       1  LIG1          0.14
     83 H          -1.6930    8.6867    0.8426 H       1  LIG1       0.15000000000000002
     84 H           0.1801    9.6422   -0.2541 H       1  LIG1       0.15000000000000002
     85 H           0.2021    7.1228   -1.9796 H       1  LIG1       0.18999999999999995
     86 H           1.6517    7.4560   -1.0794 H       1  LIG1       0.21999999999999997
     87 H           0.0941    4.4143   -4.6308 H       1  LIG1          0.13
     88 H          -1.3849    4.5822   -5.5757 H       1  LIG1       0.10999999999999999
     89 H          -0.7436    2.8270   -7.0689 H       1  LIG1       0.09999999999999998
     90 H           0.9089    2.7693   -6.4256 H       1  LIG1       0.10999999999999999
     91 H           3.2810    5.9272   -5.3399 H       1  LIG1          0.12
     92 H           2.1917    4.6118   -4.9133 H       1  LIG1          0.13
     93 H           2.3890    6.1824   -3.0514 H       1  LIG1       0.18999999999999995
     94 H           0.7235    6.1073   -3.6912 H       1  LIG1       0.20999999999999996
     95 H           1.9313   -2.2416    2.0709 H       1  LIG1       0.17000000000000004
     96 H           0.9693   -1.5964    3.4251 H       1  LIG1       0.17000000000000004
     97 H          -4.0073   -1.2238   -2.8758 H       1  LIG1       0.16000000000000003
     98 H          -3.1824   -2.6670   -3.5150 H       1  LIG1       0.16000000000000003
     99 H           2.2330    1.5328    5.4900 H       1  LIG1       0.17000000000000004
    100 H           3.6148   -4.1772    8.0766 H       1  LIG1       0.20999999999999996
    101 H           1.7324   -4.5113    2.9044 H       1  LIG1       0.18000000000000005
    102 H           0.4354   -2.4472    5.7470 H       1  LIG1       0.15000000000000002
    103 H          -0.6666   -3.9161    4.1277 H       1  LIG1       0.18000000000000005
    104 H          -2.7100    1.0006   -3.1235 H       1  LIG1          0.12
    105 H           2.4813   -4.6636    6.0864 H       1  LIG1       0.17000000000000004
    106 H           4.1019    1.7485    9.5383 H       1  LIG1          0.37
    107 H           4.4069    0.1453   10.0234 H       1  LIG1          0.37
    108 H          -0.4440   -4.8178    6.8103 H       1  LIG1       0.44999999999999996
    109 H          -0.1371    1.0063   -3.8481 H       1  LIG1       0.42000000000000004
    110 H          -1.5635   -5.7331    2.9903 H       1  LIG1          0.47
    111 H          -0.0876   -0.8599   -2.4250 H       1  LIG1            0.5
@<TRIPOS>BOND
     1    41    23    2
     2    89    15    1
     3    23    35   am
     4    23    14    1
     5    90    15    1
     6    35    16    1
     7    67     2    1
     8    15    14    1
     9    15    36    1
    10    68     3    1
    11    14    88    1
    12    14    87    1
    13    69     3    1
    14    45    31    2
    15    66     2    1
    16    91    16    1
    17     2    65    1
    18     2    33    1
    19    16    92    1
    20    16    17    1
    21    36    31   am
    22     3    70    1
    23     3    33    1
    24    31    28    1
    25    33    28    1
    26    33    19    1
    27    61    17    1
    28    61    24    1
    29    17    94    1
    30    17    93    1
    31   109    44    1
    32    28    44    1
    33    28   104    1
    34    98    19    1
    35    19    97    1
    36    19    54    1
    37    75     6    1
    38    52    60    2
    39    24    42    2
    40    24    13    1
    41    78     7    1
    42   111    51    1
    43    51    60    1
    44    85    13    1
    45    54    60    1
    46    76     6    1
    47    60    57    1
    48     6     7    1
    49     6     5    1
    50    77     7    1
    51     7     8    1
    52    13    86    1
    53    13    12    1
    54    72     4    1
    55    73     5    1
    56     5     4    1
    57     5    74    1
    58    62     1    1
    59    12    84    1
    60    12    11    2
    61    80     8    1
    62     8     9    1
    63     8    79    1
    64     4     1    1
    65     4    71    1
    66    57    59    1
    67     9    81    1
    68     9    10    2
    69    10    82    1
    70    10    11    1
    71    11    83    1
    72     1    64    1
    73     1    63    1
    74    50    59    2
    75    59    49    1
    76    59    53    1
    77    53    18    1
    78    95    18    1
    79    18    96    1
    80    18    22    1
    81   101    22    1
    82   110    48    1
    83    22    55    1
    84    22    27    1
    85    48    58    1
    86   103    27    1
    87    55    32    1
    88    27    56    1
    89    27    26    1
    90    56    58    1
    91    47    58    2
    92    58    46    1
    93    99    20    1
    94   102    26    1
    95    32    26    1
    96    32   105    1
    97    32    40    1
    98    38    20   ar
    99    38    30   ar
   100    26    43    1
   101    20    37   ar
   102    40    30   ar
   103    40    21   ar
   104    30    25   ar
   105   108    43    1
   106    37    29   ar
   107    21   100    1
   108    21    39   ar
   109    25    29   ar
   110    25    39   ar
   111    29    34    1
   112    34   106    1
   113    34   107    1
