@<TRIPOS>MOLECULE
ARVGMISWLZPBCH-WGDHXTRRSA-N	6044299	-1208.6071303911017
 78 81 0 0 0
SMALL
MULLIKEN NwChem

@<TRIPOS>ATOM
      1 C           2.8082    1.5704    4.0338 C.3     1  LIG1      -0.46999999999999975
      2 C           4.2550    0.1223    0.0663 C.3     1  LIG1      -0.46999999999999975
      3 C           3.6543   -2.2368    0.6270 C.3     1  LIG1      -0.4800000000000004
      4 C           0.4730   -3.6461    2.3762 C.3     1  LIG1      -0.4800000000000004
      5 C           0.0360    2.1046   -0.7278 C.3     1  LIG1      -0.4900000000000002
      6 C          -2.7608   -3.2913    0.8949 C.3     1  LIG1      -0.4900000000000002
      7 C           2.7564    1.0550    2.5904 C.3     1  LIG1      -0.28000000000000025
      8 C           1.0561   -1.4100    3.3937 C.3     1  LIG1      -0.28000000000000025
      9 C           2.5991   -1.3940    3.3497 C.3     1  LIG1      -0.2999999999999998
     10 C          -2.9744    2.2049   -1.9499 C.2     1  LIG1      -0.23000000000000043
     11 C          -3.2851    1.2321   -0.9105 C.2     1  LIG1      -0.20999999999999996
     12 C          -1.4768   -0.2230    2.3627 C.3     1  LIG1      -0.3099999999999996
     13 C          -2.9052   -0.0888    1.8410 C.3     1  LIG1      -0.28000000000000025
     14 C          -0.2038    1.1822   -4.4601 C.3     1  LIG1      -0.2999999999999998
     15 C          -0.2411   -0.9681   -0.9326 C.3     1  LIG1      -0.3099999999999996
     16 C           0.4445    1.2261   -3.0702 C.3     1  LIG1      -0.3099999999999996
     17 C          -0.9556   -2.2444   -0.4867 C.3     1  LIG1      -0.2999999999999998
     18 C          -1.3471    3.2696   -3.5457 C.3     1  LIG1      -0.3799999999999999
     19 C           3.2905   -0.7647    0.8766 C.3     1  LIG1      -0.08000000000000007
     20 C           0.3415   -2.1208    2.2201 C.3     1  LIG1      -0.08999999999999986
     21 C           3.2886   -0.3828    2.3871 C.3     1  LIG1      -0.04999999999999982
     22 C          -1.7377    2.3012   -2.4686 C.2     1  LIG1      0.15000000000000036
     23 C          -0.8682    2.5306   -4.8244 C.3     1  LIG1       0.13999999999999968
     24 C          -2.4653    0.1957   -0.6401 C.2     1  LIG1      0.13999999999999968
     25 C          -1.1492   -1.7043    2.0897 C.3     1  LIG1      -0.08999999999999986
     26 C          -2.8487   -0.7957    0.4638 C.3     1  LIG1      -0.1900000000000004
     27 C          -1.2374    0.0252   -1.5349 C.3     1  LIG1      -0.16000000000000014
     28 C          -0.6163    1.3972   -1.9398 C.3     1  LIG1      0.04999999999999982
     29 C          -1.8952   -2.0292    0.7151 C.3     1  LIG1      0.1200000000000001
     30 O          -0.0151    3.3656   -5.6087 O.3     1  LIG1      -0.6799999999999997
     31 H           2.1381    1.0161    4.6992 H       1  LIG1       0.15000000000000002
     32 H           2.5158    2.6256    4.0787 H       1  LIG1          0.14
     33 H           3.8230    1.4883    4.4428 H       1  LIG1          0.14
     34 H           5.2852    0.0092    0.4296 H       1  LIG1          0.14
     35 H           4.2438   -0.1658   -0.9914 H       1  LIG1          0.14
     36 H           3.9980    1.1839    0.1154 H       1  LIG1       0.15000000000000002
     37 H           2.9101   -2.9288    1.0281 H       1  LIG1       0.16000000000000003
     38 H           3.7383   -2.4352   -0.4479 H       1  LIG1          0.14
     39 H           4.6209   -2.4814    1.0862 H       1  LIG1          0.14
     40 H          -0.0965   -3.9894    3.2493 H       1  LIG1          0.14
     41 H           0.0984   -4.1882    1.5028 H       1  LIG1       0.16000000000000003
     42 H           1.5149   -3.9493    2.5254 H       1  LIG1       0.15000000000000002
     43 H           0.9306    1.5728   -0.3834 H       1  LIG1       0.16000000000000003
     44 H           0.3428    3.1208   -0.9996 H       1  LIG1       0.15000000000000002
     45 H          -0.6680    2.1759    0.1070 H       1  LIG1       0.15000000000000002
     46 H          -2.1490   -4.1605    1.1609 H       1  LIG1       0.15000000000000002
     47 H          -3.5008   -3.1518    1.6924 H       1  LIG1       0.15000000000000002
     48 H          -3.3044   -3.5320   -0.0270 H       1  LIG1          0.14
     49 H           1.7256    1.1167    2.2135 H       1  LIG1          0.14
     50 H           3.3385    1.7429    1.9685 H       1  LIG1          0.14
     51 H           0.7402   -1.8911    4.3311 H       1  LIG1          0.12
     52 H           0.7113   -0.3768    3.4663 H       1  LIG1       0.15000000000000002
     53 H           2.9855   -2.4012    3.1596 H       1  LIG1          0.14
     54 H           2.9473   -1.1481    4.3607 H       1  LIG1          0.13
     55 H          -3.7605    2.8787   -2.2870 H       1  LIG1          0.13
     56 H          -4.2145    1.3553   -0.3564 H       1  LIG1          0.13
     57 H          -1.3903    0.0442    3.4205 H       1  LIG1          0.14
     58 H          -0.8070    0.4411    1.7991 H       1  LIG1       0.15000000000000002
     59 H          -3.5896   -0.6298    2.5094 H       1  LIG1          0.13
     60 H          -3.2541    0.9447    1.7750 H       1  LIG1          0.14
     61 H          -0.9591    0.3874   -4.4807 H       1  LIG1       0.15000000000000002
     62 H           0.5287    0.9424   -5.2383 H       1  LIG1          0.14
     63 H           0.2645   -0.5085   -0.0800 H       1  LIG1       0.16000000000000003
     64 H           0.5395   -1.2186   -1.6593 H       1  LIG1          0.14
     65 H           1.1478    2.0703   -3.0280 H       1  LIG1          0.14
     66 H           1.0539    0.3344   -2.8972 H       1  LIG1       0.15000000000000002
     67 H          -0.2275   -3.0308   -0.2631 H       1  LIG1          0.14
     68 H          -1.5513   -2.6209   -1.3315 H       1  LIG1          0.13
     69 H          -2.1562    3.9662   -3.7856 H       1  LIG1       0.15000000000000002
     70 H          -0.5022    3.8829   -3.1923 H       1  LIG1       0.16000000000000003
     71 H           2.2831   -0.5918    0.4769 H       1  LIG1          0.14
     72 H           0.8614   -1.8312    1.3067 H       1  LIG1          0.14
     73 H           4.3489   -0.3798    2.6919 H       1  LIG1       0.10999999999999999
     74 H          -1.7285    2.3435   -5.4751 H       1  LIG1          0.14
     75 H          -1.6886   -2.2679    2.8661 H       1  LIG1          0.12
     76 H          -3.8447   -1.1768    0.2053 H       1  LIG1          0.14
     77 H          -1.6139   -0.4309   -2.4695 H       1  LIG1          0.14
     78 H           0.7686    3.5645   -5.0714 H       1  LIG1       0.42000000000000004
@<TRIPOS>BOND
     1    30    78    1
     2    30    23    1
     3    74    23    1
     4    62    14    1
     5    23    14    1
     6    23    18    1
     7    61    14    1
     8    14    16    1
     9    69    18    1
    10    18    70    1
    11    18    22    1
    12    16    65    1
    13    16    66    1
    14    16    28    1
    15    77    27    1
    16    22    10    2
    17    22    28    1
    18    55    10    1
    19    10    11    1
    20    28    27    1
    21    28     5    1
    22    64    15    1
    23    27    15    1
    24    27    24    1
    25    68    17    1
    26    44     5    1
    27    35     2    1
    28    15    17    1
    29    15    63    1
    30    11    24    2
    31    11    56    1
    32     5    43    1
    33     5    45    1
    34    24    26    1
    35    17    67    1
    36    17    29    1
    37    38     3    1
    38    48     6    1
    39     2    36    1
    40     2    34    1
    41     2    19    1
    42    76    26    1
    43    26    29    1
    44    26    13    1
    45    71    19    1
    46     3    19    1
    47     3    37    1
    48     3    39    1
    49    29     6    1
    50    29    25    1
    51    19    21    1
    52     6    46    1
    53     6    47    1
    54    72    20    1
    55    41     4    1
    56    60    13    1
    57    58    12    1
    58    13    12    1
    59    13    59    1
    60    50     7    1
    61    25    20    1
    62    25    12    1
    63    25    75    1
    64    49     7    1
    65    20     4    1
    66    20     8    1
    67    12    57    1
    68     4    42    1
    69     4    40    1
    70    21     7    1
    71    21    73    1
    72    21     9    1
    73     7     1    1
    74    53     9    1
    75     9     8    1
    76     9    54    1
    77     8    52    1
    78     8    51    1
    79     1    32    1
    80     1    33    1
    81     1    31    1
