@<TRIPOS>MOLECULE
ASJSAQIRZKANQN-UHFFFAOYSA-N	6044300	-497.3010072701726
 19 18 0 0 0
SMALL
MULLIKEN NwChem

@<TRIPOS>ATOM
      1 C           0.5986    1.2849   -0.3289 C.3     1  LIG1       -0.3799999999999999
      2 C           0.5201    2.1522   -1.5729 C.2     1  LIG1       0.2599999999999998
      3 C           0.2672   -0.6785    1.9422 C.3     1  LIG1       -0.04999999999999982
      4 C           0.2136   -0.1737   -0.5832 C.3     1  LIG1       0.09999999999999964
      5 C           0.6586   -1.1436    0.5351 C.3     1  LIG1       0.09999999999999964
      6 O           0.5551    1.7296   -2.7057 O.2     1  LIG1      -0.4399999999999995
      7 O          -1.1148   -0.2892    1.9361 O.3     1  LIG1      -0.6699999999999999
      8 O          -1.1942   -0.3085   -0.7975 O.3     1  LIG1      -0.6899999999999995
      9 O           0.1364   -2.4309    0.2608 O.3     1  LIG1      -0.6799999999999997
     10 H          -0.0300    1.7183    0.4596 H       1  LIG1       0.18999999999999995
     11 H           1.6369    1.3585    0.0351 H       1  LIG1       0.20999999999999996
     12 H           0.4614    3.2474   -1.3774 H       1  LIG1       0.15000000000000002
     13 H           0.4362   -1.5143    2.6335 H       1  LIG1       0.15000000000000002
     14 H           0.9008    0.1676    2.2518 H       1  LIG1       0.15000000000000002
     15 H           0.6727   -0.5040   -1.5190 H       1  LIG1       0.16000000000000003
     16 H           1.7544   -1.2263    0.5210 H       1  LIG1       0.15000000000000002
     17 H          -1.4123   -0.1557    2.8473 H       1  LIG1       0.43999999999999995
     18 H          -1.6154   -0.0956    0.0566 H       1  LIG1       0.43000000000000005
     19 H          -0.7284   -2.2639   -0.1578 H       1  LIG1       0.42000000000000004
@<TRIPOS>BOND
     1     6     2    2
     2     2    12    1
     3     2     1    1
     4    15     4    1
     5     8     4    1
     6     8    18    1
     7     4     1    1
     8     4     5    1
     9     1    11    1
    10     1    10    1
    11    19     9    1
    12     9     5    1
    13    16     5    1
    14     5     3    1
    15     7     3    1
    16     7    17    1
    17     3    14    1
    18     3    13    1
