@<TRIPOS>MOLECULE
ASKKPQKSCFYPPP-FVLDFCIYSA-J	11070896	-4761.5613437226675
 136 138 0 0 0
SMALL
MULLIKEN NwChem

@<TRIPOS>ATOM
      1 C           0.8899    4.4607   -0.9444 C.3     1  LIG1      -0.46999999999999975
      2 C           2.3594    0.6768   -2.1618 C.3     1  LIG1      -0.46999999999999975
      3 C           3.8953   -0.9970   -1.0618 C.3     1  LIG1      -0.4800000000000004
      4 C           0.1539    3.7165    0.1758 C.3     1  LIG1      -0.2599999999999998
      5 C           0.9405    3.7830    1.4897 C.3     1  LIG1      -0.29000000000000004
      6 C           0.4432    2.8291    2.5829 C.3     1  LIG1      -0.2599999999999998
      7 C           1.2171    2.9758    3.9049 C.3     1  LIG1      -0.28000000000000025
      8 C           2.7264    2.7812    3.7254 C.3     1  LIG1      -0.2999999999999998
      9 C           3.5106    2.7493    5.0386 C.3     1  LIG1      -0.2699999999999996
     10 C           5.0292    2.7052    4.7636 C.3     1  LIG1      -0.33000000000000007
     11 C           5.8487    2.7473    6.0201 C.2     1  LIG1      -0.1200000000000001
     12 C           6.6538    3.7448    6.4119 C.2     1  LIG1      -0.13999999999999968
     13 C           6.9018    5.0321    5.6482 C.3     1  LIG1      -0.3099999999999996
     14 C           5.6957    5.9954    5.6259 C.3     1  LIG1      -0.2699999999999996
     15 C           5.1979    6.3982    7.0179 C.3     1  LIG1      -0.2599999999999998
     16 C           3.9209    7.2543    6.9936 C.3     1  LIG1      -0.2599999999999998
     17 C           2.6699    6.4836    6.5548 C.3     1  LIG1      -0.28000000000000025
     18 C           1.3899    7.3245    6.6400 C.3     1  LIG1      -0.29000000000000004
     19 C           0.1173    6.5793    6.1568 C.3     1  LIG1       -0.3700000000000001
     20 C           5.6529    3.9935    1.2198 C.3     1  LIG1       -0.34999999999999964
     21 C           5.2716    3.3129   -0.1196 C.3     1  LIG1       -0.13999999999999968
     22 C           4.0033    6.9815    2.7245 C.3     1  LIG1       -0.1200000000000001
     23 C           2.9113    7.3781    1.7096 C.3     1  LIG1       -0.45999999999999996
     24 C           0.5418    7.1784    3.6551 C.3     1  LIG1       -0.45999999999999996
     25 C          -3.8228   -5.0157   -2.7966 C.3     1  LIG1       -0.07000000000000028
     26 C           1.4109   -1.2023   -0.7755 C.3     1  LIG1       -0.04999999999999982
     27 C          -9.6139   -9.6677   -5.5785 C.ar    1  LIG1       0.15000000000000036
     28 C          -8.2052   -6.0892   -3.5690 C.ar    1  LIG1       0.21999999999999975
     29 C          -0.4377    7.0433    4.8174 C.2     1  LIG1       0.46999999999999975
     30 C          -4.1780   -6.0943   -3.8150 C.3     1  LIG1       0.08999999999999986
     31 C           5.0992    5.4077    1.4186 C.2     1  LIG1       0.4900000000000002
     32 C           0.9620    8.6390    3.4409 C.2     1  LIG1       0.2999999999999998
     33 C          -9.7406   -7.4073   -4.1883 C.ar    1  LIG1       0.1900000000000004
     34 C          -5.7226   -6.1260   -5.7436 C.3     1  LIG1       0.08999999999999986
     35 C          -4.3047   -5.5939   -5.2800 C.3     1  LIG1       0.08000000000000007
     36 C           2.6020    0.6767    0.3660 C.3     1  LIG1       0.05999999999999961
     37 C         -10.9049   -8.1468   -4.4377 C.ar    1  LIG1       0.4400000000000004
     38 C          -8.5415   -7.9353   -4.7065 C.ar    1  LIG1       0.5300000000000002
     39 C           3.9002    1.5302    0.5119 C.2     1  LIG1          0.54
     40 C          -6.1222   -7.0796   -4.5885 C.3     1  LIG1       0.2599999999999998
     41 C           2.5816   -0.2108   -0.9265 C.3     1  LIG1       0.07000000000000028
     42 N         -12.1426   -7.7122   -3.9953 N.pl3   1  LIG1      -0.7800000000000002
     43 N           4.4157    5.6113    2.5559 N.am    1  LIG1      -0.5599999999999996
     44 N           3.9675    2.6507   -0.1689 N.am    1  LIG1      -0.5599999999999996
     45 N         -10.8351   -9.2881   -5.1386 N.ar    1  LIG1        -0.54
     46 N          -8.4359   -9.0721   -5.4122 N.ar    1  LIG1        -0.54
     47 N          -9.5116   -6.2496   -3.4701 N.ar    1  LIG1      -0.5800000000000001
     48 N          -7.5630   -7.0642   -4.2956 N.ar    1  LIG1      -0.5099999999999998
     49 O          -1.6245    7.2675    4.6635 O.2     1  LIG1         -0.5
     50 O           5.3655    6.2781    0.5390 O.2     1  LIG1      -0.7100000000000009
     51 O           0.5061    9.5532    4.1100 O.2     1  LIG1      -0.4900000000000002
     52 O          -5.8113   -6.7102   -7.0021 O.3     1  LIG1      -0.6899999999999995
     53 O           2.5208   -0.1358    1.5374 O.3     1  LIG1      -0.7100000000000009
     54 O           4.7664    0.9945    1.2914 O.2     1  LIG1      -0.7300000000000004
     55 O          -1.8197   -7.7484   -5.0408 O.3     1  LIG1      -0.7400000000000002
     56 O          -3.8994   -8.3795   -6.3306 O.3     1  LIG1      -0.7300000000000004
     57 O          -1.8246   -7.4008   -7.6327 O.2     1  LIG1      -0.6600000000000001
     58 O          -0.3790   -5.6999   -3.7111 O.2     1  LIG1      -0.7200000000000006
     59 O          -1.5983   -6.2151   -1.4267 O.3     1  LIG1      -0.6500000000000004
     60 O           1.5263   -3.8969   -3.5186 O.3     1  LIG1      -0.7100000000000009
     61 O           1.9966   -4.2013   -0.9413 O.2     1  LIG1      -0.6199999999999992
     62 O          -2.5448   -4.4585   -3.0621 O.3     1  LIG1      -0.5700000000000003
     63 O           1.2039   -1.9616   -2.0035 O.3     1  LIG1      -0.5399999999999991
     64 O          -5.4905   -6.5913   -3.4312 O.3     1  LIG1      -0.5500000000000007
     65 O          -3.2355   -5.9035   -6.1396 O.3     1  LIG1      -0.6099999999999994
     66 O          -0.4237   -3.9127   -1.8875 O.3     1  LIG1      -0.6300000000000008
     67 P          -2.6743   -7.4662   -6.4049 P.3     1  LIG1       1.0999999999999996
     68 P          -1.2061   -5.2610   -2.5043 P.3     1  LIG1       1.1799999999999997
     69 P           1.1693   -3.5682   -1.9970 P.3     1  LIG1       1.1999999999999993
     70 S           2.0918    9.0005    2.1042 S.3     1  LIG1      0.08000000000000007
     71 H           1.8937    4.0316   -1.0576 H       1  LIG1       0.15000000000000002
     72 H           0.3580    4.3847   -1.9031 H       1  LIG1          0.13
     73 H           1.0030    5.5271   -0.7016 H       1  LIG1          0.14
     74 H           3.1315    1.4499   -2.2059 H       1  LIG1       0.15000000000000002
     75 H           1.3873    1.1869   -2.1068 H       1  LIG1          0.14
     76 H           2.3690    0.0702   -3.0741 H       1  LIG1          0.14
     77 H           4.0933   -1.5621   -0.1459 H       1  LIG1          0.14
     78 H           3.8366   -1.7022   -1.8987 H       1  LIG1       0.16000000000000003
     79 H           4.7357   -0.3147   -1.2250 H       1  LIG1       0.15000000000000002
     80 H          -0.8657    4.1142    0.3162 H       1  LIG1          0.12
     81 H           0.0324    2.6652   -0.1187 H       1  LIG1          0.14
     82 H           0.9154    4.8155    1.8724 H       1  LIG1          0.14
     83 H           1.9902    3.5704    1.2609 H       1  LIG1       0.15000000000000002
     84 H           0.5587    1.7940    2.2334 H       1  LIG1          0.13
     85 H          -0.6330    2.9898    2.7607 H       1  LIG1          0.12
     86 H           1.0292    3.9773    4.3329 H       1  LIG1       0.15000000000000002
     87 H           0.8253    2.2513    4.6378 H       1  LIG1          0.12
     88 H           2.9096    1.8564    3.1651 H       1  LIG1          0.13
     89 H           3.1300    3.6036    3.1241 H       1  LIG1       0.15000000000000002
     90 H           3.2081    1.8868    5.6564 H       1  LIG1          0.12
     91 H           3.2837    3.6479    5.6338 H       1  LIG1          0.13
     92 H           5.2685    3.5476    4.1099 H       1  LIG1       0.18000000000000005
     93 H           5.2485    1.7975    4.1835 H       1  LIG1          0.12
     94 H           5.7408    1.8856    6.6868 H       1  LIG1          0.12
     95 H           7.1561    3.6510    7.3778 H       1  LIG1          0.13
     96 H           7.1574    4.8122    4.6043 H       1  LIG1          0.14
     97 H           7.7726    5.5444    6.0873 H       1  LIG1          0.13
     98 H           5.9701    6.8971    5.0612 H       1  LIG1          0.12
     99 H           4.9035    5.5274    5.0359 H       1  LIG1       0.17000000000000004
    100 H           5.0078    5.4919    7.6106 H       1  LIG1          0.12
    101 H           5.9948    6.9499    7.5454 H       1  LIG1          0.12
    102 H           3.7401    7.6730    7.9975 H       1  LIG1          0.13
    103 H           4.0659    8.1132    6.3219 H       1  LIG1          0.13
    104 H           2.8053    6.1077    5.5351 H       1  LIG1       0.16000000000000003
    105 H           2.5519    5.5922    7.1884 H       1  LIG1          0.14
    106 H           1.5146    8.2564    6.0759 H       1  LIG1       0.15000000000000002
    107 H           1.2394    7.6326    7.6845 H       1  LIG1       0.16000000000000003
    108 H          -0.7038    6.6559    6.8775 H       1  LIG1       0.16000000000000003
    109 H           0.3468    5.5086    6.0421 H       1  LIG1       0.19999999999999996
    110 H           6.7506    4.1055    1.2325 H       1  LIG1          0.12
    111 H           5.3821    3.3268    2.0365 H       1  LIG1          0.14
    112 H           5.3018    4.0878   -0.8970 H       1  LIG1       0.08999999999999997
    113 H           6.0692    2.5807   -0.3455 H       1  LIG1       0.08999999999999997
    114 H           3.6117    7.1282    3.7452 H       1  LIG1          0.13
    115 H           4.8281    7.7091    2.5958 H       1  LIG1       0.09999999999999998
    116 H           3.3837    7.5027    0.7329 H       1  LIG1       0.19999999999999996
    117 H           2.1548    6.5967    1.6134 H       1  LIG1       0.19999999999999996
    118 H           1.4220    6.5429    3.7836 H       1  LIG1       0.22999999999999998
    119 H           0.0332    6.8427    2.7450 H       1  LIG1       0.22999999999999998
    120 H          -4.5516   -4.1959   -2.8705 H       1  LIG1       0.17000000000000004
    121 H          -3.8650   -5.4425   -1.7891 H       1  LIG1       0.17000000000000004
    122 H           0.4747   -0.6611   -0.5894 H       1  LIG1       0.16000000000000003
    123 H           1.6001   -1.8816    0.0565 H       1  LIG1       0.17000000000000004
    124 H          -9.5973  -10.5991   -6.1427 H       1  LIG1       0.17000000000000004
    125 H          -7.6294   -5.2975   -3.1115 H       1  LIG1       0.20999999999999996
    126 H          -3.4598   -6.9145   -3.7580 H       1  LIG1       0.18999999999999995
    127 H          -6.4238   -5.2786   -5.7230 H       1  LIG1       0.17000000000000004
    128 H          -4.3375   -4.4982   -5.2729 H       1  LIG1       0.17000000000000004
    129 H           1.7238    1.3308    0.3324 H       1  LIG1          0.14
    130 H          -5.8365   -8.1067   -4.8416 H       1  LIG1       0.18000000000000005
    131 H         -12.8167   -8.4588   -3.8846 H       1  LIG1          0.36
    132 H         -12.0915   -7.0687   -3.2145 H       1  LIG1          0.37
    133 H          -5.1165   -7.4384   -6.9758 H       1  LIG1       0.43000000000000005
    134 H           3.4677   -0.0637    1.8382 H       1  LIG1           0.4
    135 H          -1.2337   -6.9981   -4.7702 H       1  LIG1          0.47
    136 H           0.8967   -4.6256   -3.8241 H       1  LIG1           0.48
@<TRIPOS>BOND
     1    57    67    2
     2    52   133    1
     3    52    34    1
     4    67    56    1
     5    67    65    1
     6    67    55    1
     7   124    27    1
     8    65    35    1
     9    34   127    1
    10    34    35    1
    11    34    40    1
    12    27    46   ar
    13    27    45   ar
    14    46    38   ar
    15    35   128    1
    16    35    30    1
    17    45    37   ar
    18    55   135    1
    19   130    40    1
    20    38    48   ar
    21    38    33   ar
    22    40    48    1
    23    40    64    1
    24    37    33   ar
    25    37    42    1
    26    48    28   ar
    27    33    47   ar
    28    42   131    1
    29    42   132    1
    30   136    60    1
    31    30   126    1
    32    30    64    1
    33    30    25    1
    34    58    68    2
    35    28    47   ar
    36    28   125    1
    37    60    69    1
    38    76     2    1
    39    62    25    1
    40    62    68    1
    41   120    25    1
    42    25   121    1
    43    68    66    1
    44    68    59    1
    45    74     2    1
    46     2    75    1
    47     2    41    1
    48    63    69    1
    49    63    26    1
    50    69    66    1
    51    69    61    2
    52    72     1    1
    53    78     3    1
    54    79     3    1
    55     3    41    1
    56     3    77    1
    57    71     1    1
    58     1    73    1
    59     1     4    1
    60    41    26    1
    61    41    36    1
    62   112    21    1
    63    26   122    1
    64    26   123    1
    65   113    21    1
    66    44    21    1
    67    44    39   am
    68    21    20    1
    69    81     4    1
    70     4    80    1
    71     4     5    1
    72   129    36    1
    73    36    39    1
    74    36    53    1
    75    39    54    2
    76    50    31    2
    77   116    23    1
    78    20   110    1
    79    20    31    1
    80    20   111    1
    81    83     5    1
    82    31    43   am
    83     5    82    1
    84     5     6    1
    85    53   134    1
    86   117    23    1
    87    23    70    1
    88    23    22    1
    89    70    32    1
    90    84     6    1
    91    43    22    1
    92     6    85    1
    93     6     7    1
    94   115    22    1
    95    22   114    1
    96   119    24    1
    97    89     8    1
    98    88     8    1
    99    32    24    1
   100    32    51    2
   101    24   118    1
   102    24    29    1
   103     8     7    1
   104     8     9    1
   105     7    86    1
   106     7    87    1
   107    92    10    1
   108    93    10    1
   109    96    13    1
   110    49    29    2
   111    10     9    1
   112    10    11    1
   113    29    19    1
   114    99    14    1
   115     9    91    1
   116     9    90    1
   117    98    14    1
   118   104    17    1
   119    14    13    1
   120    14    15    1
   121    13    97    1
   122    13    12    1
   123    11    12    2
   124    11    94    1
   125   109    19    1
   126   106    18    1
   127    19    18    1
   128    19   108    1
   129   103    16    1
   130    12    95    1
   131    17    18    1
   132    17    16    1
   133    17   105    1
   134    18   107    1
   135    16    15    1
   136    16   102    1
   137    15   101    1
   138    15   100    1
