@<TRIPOS>MOLECULE
ATHGHQPFGPMSJY-UHFFFAOYSA-Q	6044303	-443.5678767449139
 32 31 0 0 0
SMALL
MULLIKEN NwChem

@<TRIPOS>ATOM
      1 C           1.2115   -1.9113   -1.8582 C.3     1  LIG1      -0.28000000000000025
      2 C           0.6580   -0.5210   -1.4537 C.3     1  LIG1      -0.29000000000000004
      3 C          -1.3342    1.0243    2.2216 C.3     1  LIG1      -0.3099999999999996
      4 C           1.0052   -2.1627   -3.3590 C.3     1  LIG1      -0.17999999999999972
      5 C          -1.1585    2.0973    3.3214 C.3     1  LIG1      -0.17999999999999972
      6 C           0.9244   -0.2430    0.0332 C.3     1  LIG1      -0.16000000000000014
      7 C          -0.9608    1.4224    0.7778 C.3     1  LIG1      -0.16999999999999993
      8 N           1.5814   -3.5084   -3.7889 N.4     1  LIG1         -0.71
      9 N          -2.4325    2.8978    3.5945 N.4     1  LIG1         -0.71
     10 N           0.5174    1.1846    0.4437 N.4     1  LIG1       -0.6200000000000001
     11 H           0.7089   -2.6942   -1.2761 H       1  LIG1       0.18999999999999995
     12 H           2.2819   -1.9605   -1.6199 H       1  LIG1       0.18000000000000005
     13 H           1.1498    0.2507   -2.0617 H       1  LIG1       0.18999999999999995
     14 H          -0.4164   -0.4751   -1.6697 H       1  LIG1       0.18999999999999995
     15 H          -2.3726    0.6703    2.2088 H       1  LIG1       0.21999999999999997
     16 H          -0.7573    0.1434    2.5278 H       1  LIG1       0.21999999999999997
     17 H          -0.0527   -2.1873   -3.6327 H       1  LIG1       0.22999999999999998
     18 H           1.5092   -1.4126   -3.9742 H       1  LIG1       0.22999999999999998
     19 H          -0.9068    1.6324    4.2773 H       1  LIG1       0.22999999999999998
     20 H          -0.3860    2.8373    3.0926 H       1  LIG1          0.24
     21 H           0.3807   -0.9257    0.6913 H       1  LIG1       0.22999999999999998
     22 H           1.9911   -0.3191    0.2618 H       1  LIG1       0.21999999999999997
     23 H          -1.1524    2.4792    0.5699 H       1  LIG1       0.22999999999999998
     24 H          -1.5273    0.8348    0.0531 H       1  LIG1       0.22999999999999998
     25 H           1.1422   -4.2993   -3.2969 H       1  LIG1      0.44999999999999996
     26 H           1.4360   -3.6677   -4.7975 H       1  LIG1      0.44999999999999996
     27 H           2.5962   -3.5704   -3.6225 H       1  LIG1      0.44999999999999996
     28 H          -3.2052    2.2946    3.9142 H       1  LIG1      0.44999999999999996
     29 H          -2.2742    3.5889    4.3453 H       1  LIG1      0.44999999999999996
     30 H          -2.7741    3.4242    2.7785 H       1  LIG1      0.44999999999999996
     31 H           1.1000    1.4683    1.2419 H       1  LIG1      0.44999999999999996
     32 H           0.7862    1.8224   -0.3180 H       1  LIG1      0.44999999999999996
@<TRIPOS>BOND
     1    26     8    1
     2    18     4    1
     3     8    27    1
     4     8     4    1
     5     8    25    1
     6    17     4    1
     7     4     1    1
     8    13     2    1
     9     1    12    1
    10     1     2    1
    11     1    11    1
    12    14     2    1
    13     2     6    1
    14    32    10    1
    15     6    22    1
    16     6    10    1
    17     6    21    1
    18    24     7    1
    19    10     7    1
    20    10    31    1
    21    23     7    1
    22     7     3    1
    23    15     3    1
    24     3    16    1
    25     3     5    1
    26    30     9    1
    27    20     5    1
    28     5     9    1
    29     5    19    1
    30     9    28    1
    31     9    29    1
