@<TRIPOS>MOLECULE
ATQQULXELMEJIX-NSUIJKAQSA-N	6044304	-1707.8291688046488
 99 99 0 0 0
SMALL
MULLIKEN NwChem

@<TRIPOS>ATOM
      1 C           1.8334    5.1745    2.3129 C.3     1  LIG1      -0.5300000000000002
      2 C           1.4616    4.8958   -0.1731 C.3     1  LIG1        -0.54
      3 C           4.1851   -0.6790    2.0342 C.3     1  LIG1      -0.5499999999999998
      4 C           3.9688    0.0440   -3.6085 C.3     1  LIG1      -0.5300000000000002
      5 C          -1.4631    2.6334   -0.6779 C.3     1  LIG1      -0.5499999999999998
      6 C           1.0733   -0.0141    4.3305 C.3     1  LIG1      -0.5499999999999998
      7 C           1.0003   -2.7428   -0.0424 C.3     1  LIG1      -0.5499999999999998
      8 C          -3.9908   -4.3869   -3.0486 C.3     1  LIG1      -0.5499999999999998
      9 C          -5.9813    1.3306   -0.5550 C.3     1  LIG1       -0.2400000000000002
     10 C           4.2942    3.2725    2.0056 C.3     1  LIG1      -0.3200000000000003
     11 C           5.6725   -0.1588   -0.6097 C.3     1  LIG1      -0.3099999999999996
     12 C           1.4087    1.2679   -2.2378 C.3     1  LIG1      -0.3200000000000003
     13 C          -0.1697    1.9823    2.0993 C.3     1  LIG1      -0.33000000000000007
     14 C           0.3280   -2.6976    2.9786 C.3     1  LIG1      -0.3200000000000003
     15 C           3.3514    3.7068    0.9146 C.2     1  LIG1      -0.1900000000000004
     16 C           4.1192    1.8083    2.4535 C.3     1  LIG1      -0.33999999999999986
     17 C           5.2060    0.9009    0.3672 C.2     1  LIG1      -0.20000000000000018
     18 C           4.5270   -0.9366   -1.3138 C.3     1  LIG1      -0.33999999999999986
     19 C           2.5255    0.4982   -1.5824 C.2     1  LIG1      -0.17999999999999972
     20 C           0.0279    0.8318   -1.6673 C.3     1  LIG1      -0.3600000000000003
     21 C           0.1344    1.3287    0.7809 C.2     1  LIG1      -0.1900000000000004
     22 C          -0.9050    1.0277    3.0818 C.3     1  LIG1      -0.33000000000000007
     23 C          -0.4304   -1.3964    2.8645 C.2     1  LIG1      -0.1900000000000004
     24 C          -0.1813   -3.7708    1.9882 C.3     1  LIG1      -0.33999999999999986
     25 C          -1.4324   -3.4300   -0.1227 C.2     1  LIG1      -0.23000000000000043
     26 C          -1.7632   -3.0195   -1.5452 C.3     1  LIG1      -0.41999999999999993
     27 C          -5.6581   -1.1718   -1.8282 C.ar    1  LIG1       -0.2999999999999998
     28 C           2.3004    4.5337    1.0288 C.2     1  LIG1      0.17999999999999972
     29 C           4.5568    0.6950    1.5212 C.2     1  LIG1      0.16999999999999993
     30 C           3.5930   -0.0807   -2.1520 C.2     1  LIG1      0.16000000000000014
     31 C          -0.3952    1.5983   -0.4210 C.2     1  LIG1      0.1900000000000004
     32 C          -0.1021   -0.2143    3.4062 C.2     1  LIG1      0.17999999999999972
     33 C          -0.2706   -3.3069    0.5446 C.2     1  LIG1      0.1900000000000004
     34 C          -4.1958   -3.0566   -2.3567 C.ar    1  LIG1      0.05999999999999961
     35 C          -3.1573   -2.4161   -1.6454 C.ar    1  LIG1       0.04999999999999982
     36 C          -5.4377   -2.4158   -2.4325 C.ar    1  LIG1       0.28000000000000025
     37 C          -4.6373   -0.5586   -1.1043 C.ar    1  LIG1       0.33999999999999986
     38 C          -3.3909   -1.2008   -0.9896 C.ar    1  LIG1       0.20999999999999996
     39 O          -6.4453   -3.0450   -3.1335 O.3     1  LIG1      -0.6899999999999995
     40 O          -2.4378   -0.5449   -0.2527 O.3     1  LIG1      -0.6899999999999995
     41 O          -4.7426    0.6495   -0.4729 O.3     1  LIG1      -0.5399999999999991
     42 H           1.8566    6.2698    2.2338 H       1  LIG1       0.16000000000000003
     43 H           2.4266    4.8921    3.1862 H       1  LIG1       0.16000000000000003
     44 H           0.7894    4.8955    2.5146 H       1  LIG1       0.16000000000000003
     45 H           1.8600    4.4675   -1.0992 H       1  LIG1       0.16000000000000003
     46 H           0.4304    4.5404   -0.0535 H       1  LIG1       0.17000000000000004
     47 H           1.4078    5.9875   -0.2973 H       1  LIG1       0.15000000000000002
     48 H           3.1132   -0.8693    1.8780 H       1  LIG1       0.18999999999999995
     49 H           4.7397   -1.4866    1.5494 H       1  LIG1       0.16000000000000003
     50 H           4.3567   -0.7525    3.1166 H       1  LIG1       0.16000000000000003
     51 H           3.8912   -0.9267   -4.1192 H       1  LIG1       0.16000000000000003
     52 H           3.3555    0.7663   -4.1528 H       1  LIG1       0.16000000000000003
     53 H           5.0182    0.3558   -3.7079 H       1  LIG1       0.16000000000000003
     54 H          -2.4109    2.1187   -0.8854 H       1  LIG1       0.15000000000000002
     55 H          -1.6294    3.3160    0.1594 H       1  LIG1       0.16000000000000003
     56 H          -1.2124    3.2413   -1.5572 H       1  LIG1       0.15000000000000002
     57 H           0.7189    0.2858    5.3262 H       1  LIG1       0.16000000000000003
     58 H           1.6911   -0.9091    4.4481 H       1  LIG1       0.16000000000000003
     59 H           1.7250    0.7969    3.9857 H       1  LIG1       0.17000000000000004
     60 H           0.9169   -2.4787   -1.1003 H       1  LIG1       0.17000000000000004
     61 H           1.3128   -1.8388    0.5018 H       1  LIG1       0.18999999999999995
     62 H           1.8208   -3.4696    0.0590 H       1  LIG1       0.17000000000000004
     63 H          -3.3260   -4.2871   -3.9174 H       1  LIG1       0.17000000000000004
     64 H          -3.5422   -5.1299   -2.3790 H       1  LIG1       0.17000000000000004
     65 H          -4.9403   -4.7895   -3.4057 H       1  LIG1       0.17000000000000004
     66 H          -6.2406    1.5864   -1.5920 H       1  LIG1       0.17000000000000004
     67 H          -6.7972    0.7400   -0.1146 H       1  LIG1       0.17000000000000004
     68 H          -5.8540    2.2524    0.0163 H       1  LIG1       0.18000000000000005
     69 H           5.3329    3.4318    1.6813 H       1  LIG1       0.15000000000000002
     70 H           4.1654    3.9020    2.8916 H       1  LIG1       0.15000000000000002
     71 H           6.2982    0.3182   -1.3743 H       1  LIG1          0.14
     72 H           6.3178   -0.8892   -0.1013 H       1  LIG1       0.15000000000000002
     73 H           1.5275    2.3491   -2.0778 H       1  LIG1       0.15000000000000002
     74 H           1.4198    1.1095   -3.3224 H       1  LIG1       0.15000000000000002
     75 H           0.7691    2.3252    2.5571 H       1  LIG1       0.15000000000000002
     76 H          -0.7840    2.8778    1.9644 H       1  LIG1       0.15000000000000002
     77 H           1.4004   -2.5292    2.8142 H       1  LIG1       0.16000000000000003
     78 H           0.2483   -3.1135    3.9923 H       1  LIG1       0.15000000000000002
     79 H           3.5490    3.2866   -0.0708 H       1  LIG1          0.12
     80 H           4.6521    1.6652    3.4081 H       1  LIG1       0.15000000000000002
     81 H           3.0576    1.6559    2.6900 H       1  LIG1       0.17000000000000004
     82 H           5.4041    1.9271    0.0686 H       1  LIG1          0.13
     83 H           4.9800   -1.7094   -1.9514 H       1  LIG1          0.14
     84 H           3.9460   -1.4699   -0.5546 H       1  LIG1       0.16000000000000003
     85 H           2.4110    0.3636   -0.5099 H       1  LIG1          0.13
     86 H          -0.7411    0.9570   -2.4393 H       1  LIG1          0.14
     87 H           0.0685   -0.2443   -1.4615 H       1  LIG1       0.17000000000000004
     88 H           0.8424    0.5050    0.8500 H       1  LIG1          0.14
     89 H          -1.1284    1.5855    4.0031 H       1  LIG1          0.14
     90 H          -1.8610    0.7433    2.6288 H       1  LIG1          0.14
     91 H          -1.3257   -1.4264    2.2444 H       1  LIG1          0.12
     92 H           0.4875   -4.6430    2.0525 H       1  LIG1       0.15000000000000002
     93 H          -1.1728   -4.1083    2.3142 H       1  LIG1       0.15000000000000002
     94 H          -2.2753   -3.8753    0.4078 H       1  LIG1          0.14
     95 H          -1.0340   -2.2905   -1.9221 H       1  LIG1       0.18000000000000005
     96 H          -1.6849   -3.8883   -2.2075 H       1  LIG1       0.18000000000000005
     97 H          -6.6258   -0.6923   -1.9335 H       1  LIG1       0.17000000000000004
     98 H          -7.2705   -2.5520   -3.0088 H       1  LIG1       0.44999999999999996
     99 H          -1.7431   -1.1669    0.0199 H       1  LIG1       0.44999999999999996
@<TRIPOS>BOND
     1    52     4    1
     2    51     4    1
     3    63     8    1
     4    53     4    1
     5     4    30    1
     6    65     8    1
     7    74    12    1
     8    39    98    1
     9    39    36    1
    10     8    64    1
    11     8    34    1
    12    86    20    1
    13    36    34   ar
    14    36    27   ar
    15    34    35   ar
    16    12    73    1
    17    12    20    1
    18    12    19    1
    19    96    26    1
    20    30    19    2
    21    30    18    1
    22    83    18    1
    23    97    27    1
    24    95    26    1
    25    27    37   ar
    26    20    87    1
    27    20    31    1
    28    35    26    1
    29    35    38   ar
    30    66     9    1
    31    19    85    1
    32    56     5    1
    33    26    25    1
    34    71    11    1
    35    18    11    1
    36    18    84    1
    37    37    38   ar
    38    37    41    1
    39    60     7    1
    40    45     2    1
    41    38    40    1
    42    54     5    1
    43     5    31    1
    44     5    55    1
    45    11    72    1
    46    11    17    1
    47     9    41    1
    48     9    67    1
    49     9    68    1
    50    31    21    2
    51    47     2    1
    52    40    99    1
    53     2    46    1
    54     2    28    1
    55    25    94    1
    56    25    33    2
    57    79    15    1
    58     7    62    1
    59     7    61    1
    60     7    33    1
    61    82    17    1
    62    17    29    2
    63    33    24    1
    64    21    88    1
    65    21    13    1
    66    15    28    2
    67    15    10    1
    68    28     1    1
    69    29     3    1
    70    29    16    1
    71    49     3    1
    72    69    10    1
    73    48     3    1
    74    76    13    1
    75    24    92    1
    76    24    93    1
    77    24    14    1
    78    10    16    1
    79    10    70    1
    80     3    50    1
    81    13    75    1
    82    13    22    1
    83    42     1    1
    84    91    23    1
    85     1    44    1
    86     1    43    1
    87    16    81    1
    88    16    80    1
    89    90    22    1
    90    77    14    1
    91    23    14    1
    92    23    32    2
    93    14    78    1
    94    22    32    1
    95    22    89    1
    96    32     6    1
    97    59     6    1
    98     6    58    1
    99     6    57    1
