@<TRIPOS>MOLECULE
ATTZFOQANXUZIP-UHFFFAOYSA-N	6044305	-493.30861824082876
 18 18 0 0 0
SMALL
MULLIKEN NwChem

@<TRIPOS>ATOM
      1 C           0.9079    0.1250    3.2557 C.3     1  LIG1      -0.5199999999999996
      2 C          -0.0588    1.5464    0.0415 C.ar    1  LIG1           0.0
      3 C          -0.8671    0.5273   -2.1500 C.3     1  LIG1       -0.1299999999999999
      4 C           0.4646    0.2393    1.8221 C.ar    1  LIG1       0.4400000000000004
      5 C          -0.3300    0.4358   -0.7465 C.ar    1  LIG1       0.05999999999999961
      6 C          -0.1160   -0.8133   -0.1141 C.ar    1  LIG1       0.46999999999999975
      7 N           0.3376    1.4780    1.3186 N.ar    1  LIG1      -0.4900000000000002
      8 N           0.2659   -0.9082    1.1552 N.ar    1  LIG1      -0.5300000000000002
      9 O          -0.2581   -0.4345   -3.0370 O.3     1  LIG1      -0.6500000000000004
     10 O          -0.2840   -1.9748   -0.7681 O.3     1  LIG1      -0.6400000000000006
     11 H           0.5506   -0.8096    3.6945 H       1  LIG1       0.18000000000000005
     12 H           0.5523    0.9810    3.8345 H       1  LIG1       0.18000000000000005
     13 H           2.0045    0.1220    3.3056 H       1  LIG1       0.18999999999999995
     14 H          -0.1757    2.5485   -0.3741 H       1  LIG1       0.18000000000000005
     15 H          -1.9333    0.2763   -2.1804 H       1  LIG1       0.19999999999999996
     16 H          -0.7566    1.5474   -2.5427 H       1  LIG1       0.18999999999999995
     17 H           0.6901   -0.2270   -3.0890 H       1  LIG1       0.43999999999999995
     18 H          -0.3784   -1.7693   -1.7247 H       1  LIG1       0.44999999999999996
@<TRIPOS>BOND
     1    17     9    1
     2     9     3    1
     3    16     3    1
     4    15     3    1
     5     3     5    1
     6    18    10    1
     7    10     6    1
     8     5     6   ar
     9     5     2   ar
    10    14     2    1
    11     6     8   ar
    12     2     7   ar
    13     8     4   ar
    14     7     4   ar
    15     4     1    1
    16     1    13    1
    17     1    11    1
    18     1    12    1
