@<TRIPOS>MOLECULE
ATZKAUGGNMSCCY-VYCBRMPGSA-K	11070898	-2381.861228487627
 88 88 0 0 0
SMALL
MULLIKEN NwChem

@<TRIPOS>ATOM
      1 C          11.6899    1.6363   -0.6909 C.3     1  LIG1      -0.5300000000000002
      2 C          11.7064   -0.8367   -0.1593 C.3     1  LIG1      -0.5199999999999996
      3 C          -9.0278    2.5913    2.2334 C.3     1  LIG1      -0.5199999999999996
      4 C          -9.8776    0.6395    0.8566 C.3     1  LIG1      -0.5300000000000002
      5 C           6.8958    3.8322    1.6176 C.3     1  LIG1        -0.54
      6 C          -5.4617    2.9744   -0.9908 C.3     1  LIG1        -0.54
      7 C           1.8842    2.6164   -1.7352 C.3     1  LIG1        -0.54
      8 C          -1.3541    0.0555   -1.9052 C.3     1  LIG1      -0.5499999999999998
      9 C           8.7705    1.7455    0.2867 C.3     1  LIG1      -0.2999999999999998
     10 C          -6.8389   -0.0055    0.2404 C.3     1  LIG1      -0.3200000000000003
     11 C           4.2837    3.7883   -0.0921 C.3     1  LIG1      -0.3200000000000003
     12 C          -2.7393    2.2040    0.3910 C.3     1  LIG1      -0.3200000000000003
     13 C           9.6400    0.5166    0.2802 C.2     1  LIG1      -0.1900000000000004
     14 C          -7.4018    1.1060    1.0668 C.2     1  LIG1      -0.16999999999999993
     15 C           7.3363    1.4634    0.7858 C.3     1  LIG1      -0.34999999999999964
     16 C          -5.9867    0.4655   -0.9744 C.3     1  LIG1      -0.33000000000000007
     17 C           5.2826    2.6740    0.0549 C.2     1  LIG1      -0.1900000000000004
     18 C           2.8773    3.4663    0.4767 C.3     1  LIG1      -0.33000000000000007
     19 C          -3.8275    1.2687   -0.0677 C.2     1  LIG1      -0.21999999999999975
     20 C          -1.4146    2.1354   -0.4181 C.3     1  LIG1      -0.2999999999999998
     21 C           1.4961    1.3868    0.4043 C.2     1  LIG1      -0.21999999999999975
     22 C          -1.0956   -1.5550    0.6547 C.3     1  LIG1       -0.05999999999999961
     23 C          10.9312    0.4515   -0.1605 C.2     1  LIG1      0.17999999999999972
     24 C          -8.6798    1.4129    1.3529 C.2     1  LIG1      0.16999999999999993
     25 C           6.4251    2.6724    0.7682 C.2     1  LIG1      0.16999999999999993
     26 C          -4.9993    1.5757   -0.6462 C.2     1  LIG1      0.16000000000000014
     27 C           2.0812    2.4042   -0.2529 C.2     1  LIG1      0.20999999999999996
     28 C           0.5719    0.3718   -0.1769 C.3     1  LIG1      -0.20000000000000018
     29 C          -0.6214   -0.1132    0.6137 C.3     1  LIG1      -0.16999999999999993
     30 C          -0.8653    0.7210   -0.6245 C.3     1  LIG1      0.16999999999999993
     31 O          -0.6449   -4.6397   -0.3174 O.3     1  LIG1      -0.8200000000000003
     32 O          -2.1085   -5.4544   -2.3011 O.2     1  LIG1      -0.7699999999999996
     33 O          -1.1819   -3.0412   -2.2437 O.3     1  LIG1      -0.7699999999999996
     34 O          -4.8671   -2.2050    0.2841 O.2     1  LIG1      -0.6899999999999995
     35 O          -3.2510   -3.4294    1.9436 O.3     1  LIG1      -0.7300000000000004
     36 O          -2.4874   -1.4910    0.4129 O.3     1  LIG1      -0.5899999999999999
     37 O          -3.1091   -3.7859   -0.6510 O.3     1  LIG1      -0.6899999999999995
     38 P          -1.6232   -4.2847   -1.4437 P.3     1  LIG1       0.9700000000000006
     39 P          -3.5069   -2.8329    0.5801 P.3     1  LIG1       1.0399999999999991
     40 H          12.0121    1.4864   -1.7392 H       1  LIG1       0.16000000000000003
     41 H          12.6234    1.8170   -0.1230 H       1  LIG1       0.16000000000000003
     42 H          11.1038    2.5604   -0.6602 H       1  LIG1       0.16000000000000003
     43 H          12.0359   -1.1269   -1.1750 H       1  LIG1       0.16000000000000003
     44 H          11.1161   -1.6686    0.2427 H       1  LIG1       0.16000000000000003
     45 H          12.6337   -0.7654    0.4410 H       1  LIG1       0.15000000000000002
     46 H          -9.5809    2.2779    3.1352 H       1  LIG1       0.15000000000000002
     47 H          -8.1315    3.1298    2.5614 H       1  LIG1       0.15000000000000002
     48 H          -9.6817    3.3109    1.7112 H       1  LIG1       0.15000000000000002
     49 H         -10.5638    1.2901    0.2888 H       1  LIG1       0.15000000000000002
     50 H         -10.4652    0.2317    1.6956 H       1  LIG1       0.15000000000000002
     51 H          -9.5933   -0.1956    0.2126 H       1  LIG1       0.16000000000000003
     52 H           6.1445    4.6196    1.7191 H       1  LIG1       0.16000000000000003
     53 H           7.1508    3.4838    2.6297 H       1  LIG1       0.16000000000000003
     54 H           7.8099    4.2927    1.2141 H       1  LIG1       0.17000000000000004
     55 H          -4.7589    3.7526   -0.6724 H       1  LIG1       0.15000000000000002
     56 H          -5.6035    3.0809   -2.0785 H       1  LIG1       0.15000000000000002
     57 H          -6.4398    3.1892   -0.5327 H       1  LIG1       0.15000000000000002
     58 H           1.6088    3.6604   -1.9524 H       1  LIG1       0.15000000000000002
     59 H           1.0967    1.9649   -2.1208 H       1  LIG1       0.17000000000000004
     60 H           2.8028    2.4086   -2.3048 H       1  LIG1       0.16000000000000003
     61 H          -1.1415   -1.0226   -1.9701 H       1  LIG1       0.20999999999999996
     62 H          -2.4406    0.1540   -1.9866 H       1  LIG1          0.13
     63 H          -0.9050    0.5714   -2.7735 H       1  LIG1          0.12
     64 H           9.2175    2.5364    0.9167 H       1  LIG1       0.16000000000000003
     65 H           8.7009    2.1945   -0.7211 H       1  LIG1       0.15000000000000002
     66 H          -7.6202   -0.6835   -0.1254 H       1  LIG1          0.12
     67 H          -6.1530   -0.6409    0.8263 H       1  LIG1       0.17000000000000004
     68 H           4.6488    4.7073    0.3825 H       1  LIG1       0.15000000000000002
     69 H           4.1759    4.0289   -1.1609 H       1  LIG1       0.15000000000000002
     70 H          -3.0731    3.2531    0.4103 H       1  LIG1          0.13
     71 H          -2.5001    1.9384    1.4316 H       1  LIG1          0.13
     72 H           9.1790   -0.3986    0.6531 H       1  LIG1          0.13
     73 H          -6.6355    1.7556    1.4962 H       1  LIG1          0.12
     74 H           6.9016    0.6611    0.1772 H       1  LIG1       0.15000000000000002
     75 H           7.4132    1.0663    1.8126 H       1  LIG1          0.14
     76 H          -6.6552    0.7984   -1.7861 H       1  LIG1          0.12
     77 H          -5.4499   -0.4342   -1.2942 H       1  LIG1          0.14
     78 H           5.0207    1.7620   -0.4825 H       1  LIG1          0.13
     79 H           2.3018    4.4088    0.4435 H       1  LIG1       0.15000000000000002
     80 H           2.9774    3.1972    1.5361 H       1  LIG1          0.14
     81 H          -3.6146    0.2125    0.1120 H       1  LIG1       0.18999999999999995
     82 H          -1.5822    2.5933   -1.4051 H       1  LIG1          0.13
     83 H          -0.6796    2.7707    0.0972 H       1  LIG1          0.13
     84 H           1.6732    1.3211    1.4822 H       1  LIG1          0.12
     85 H          -0.8930   -2.0089    1.6365 H       1  LIG1       0.09999999999999998
     86 H          -0.5924   -2.1638   -0.1029 H       1  LIG1       0.16000000000000003
     87 H           1.0417   -0.3815   -0.8110 H       1  LIG1          0.14
     88 H          -0.7825    0.4413    1.5439 H       1  LIG1           0.14
@<TRIPOS>BOND
     1    63     8    1
     2    60     7    1
     3    32    38    2
     4    33    38    1
     5    59     7    1
     6    56     6    1
     7    62     8    1
     8    61     8    1
     9    58     7    1
    10     8    30    1
    11    76    16    1
    12    40     1    1
    13     7    27    1
    14    38    37    1
    15    38    31    1
    16    82    20    1
    17    77    16    1
    18    43     2    1
    19    69    11    1
    20     6    55    1
    21     6    26    1
    22     6    57    1
    23    16    26    1
    24    16    10    1
    25    87    28    1
    26    65     9    1
    27     1    42    1
    28     1    23    1
    29     1    41    1
    30    37    39    1
    31    26    19    2
    32    30    20    1
    33    30    28    1
    34    30    29    1
    35    78    17    1
    36    20    83    1
    37    20    12    1
    38    27    21    2
    39    27    18    1
    40    28    21    1
    41    28    29    1
    42    23     2    1
    43    23    13    2
    44     2    44    1
    45     2    45    1
    46    66    10    1
    47    86    22    1
    48    11    17    1
    49    11    68    1
    50    11    18    1
    51    19    81    1
    52    19    12    1
    53    17    25    2
    54    74    15    1
    55    51     4    1
    56    10    67    1
    57    10    14    1
    58    13     9    1
    59    13    72    1
    60    34    39    2
    61     9    15    1
    62     9    64    1
    63    49     4    1
    64    12    70    1
    65    12    71    1
    66    21    84    1
    67    36    39    1
    68    36    22    1
    69    79    18    1
    70    18    80    1
    71    39    35    1
    72    29    22    1
    73    29    88    1
    74    22    85    1
    75    25    15    1
    76    25     5    1
    77    15    75    1
    78     4    24    1
    79     4    50    1
    80    14    24    2
    81    14    73    1
    82    54     5    1
    83    24     3    1
    84     5    52    1
    85     5    53    1
    86    48     3    1
    87     3    47    1
    88     3    46    1
