@<TRIPOS>MOLECULE
AUNGANRZJHBGPY-SCRDCRAPSA-M	6044308	-1329.4687820771956
 46 48 0 0 0
SMALL
MULLIKEN NwChem

@<TRIPOS>ATOM
      1 C           0.6748   -3.3358    5.0658 C.3     1  LIG1      -0.5499999999999998
      2 C          -0.0538   -4.7276    2.5677 C.3     1  LIG1      -0.5499999999999998
      3 C           1.0580   -1.2673    3.6760 C.ar    1  LIG1      -0.2599999999999998
      4 C           0.3841   -2.5866    1.3304 C.ar    1  LIG1      -0.28000000000000025
      5 C           0.5696   -1.1430   -1.2213 C.3     1  LIG1       -0.20000000000000018
      6 C          -2.1192    0.4629   -4.3331 C.3     1  LIG1       -0.07000000000000028
      7 C           0.7001   -2.6079    3.7428 C.ar    1  LIG1      0.1299999999999999
      8 C           0.3556   -3.2743    2.5419 C.ar    1  LIG1      0.1299999999999999
      9 C           1.0880   -0.5535    2.4670 C.ar    1  LIG1          0.25
     10 C           0.7464   -1.2299    1.2666 C.ar    1  LIG1       0.3899999999999997
     11 C          -0.8984   -1.3003   -1.6704 C.3     1  LIG1       0.08999999999999986
     12 C          -1.2817    0.8376   -3.0943 C.3     1  LIG1       0.05999999999999961
     13 C           1.4469    1.4429    1.3851 C.ar    1  LIG1       0.20000000000000018
     14 C          -1.6901    0.0116   -1.8408 C.3     1  LIG1       0.16000000000000014
     15 C           1.0199    0.8637    0.1078 C.ar    1  LIG1       0.5599999999999996
     16 C           1.9202    2.8944    1.3061 C.ar    1  LIG1       0.5099999999999998
     17 C           0.9971    2.9810   -0.8534 C.ar    1  LIG1       0.6100000000000003
     18 N           1.4801    0.7755    2.4969 N.ar    1  LIG1      -0.5800000000000001
     19 N           0.8804    1.5509   -0.9742 N.ar    1  LIG1      -0.6299999999999999
     20 N           1.5875    3.5921    0.1902 N.ar    1  LIG1      -0.6299999999999999
     21 N           0.7835   -0.5108    0.0804 N.ar    1  LIG1      -0.5899999999999999
     22 O          -3.4129    1.0682   -4.2168 O.3     1  LIG1      -0.6699999999999999
     23 O          -0.8918   -2.1192   -2.8497 O.3     1  LIG1      -0.6600000000000001
     24 O          -1.5252    2.2176   -2.9106 O.3     1  LIG1      -0.7400000000000002
     25 O          -3.0700   -0.3572   -1.8381 O.3     1  LIG1      -0.7200000000000006
     26 O           2.5525    3.3498    2.2624 O.2     1  LIG1      -0.6099999999999994
     27 O           0.4973    3.6077   -1.8157 O.2     1  LIG1      -0.6300000000000008
     28 H          -0.3267   -3.7217    5.3005 H       1  LIG1       0.18000000000000005
     29 H           0.9755   -2.6736    5.8835 H       1  LIG1       0.17000000000000004
     30 H           1.3526   -4.2005    5.0703 H       1  LIG1       0.18000000000000005
     31 H          -0.9362   -4.8854    3.2021 H       1  LIG1       0.18000000000000005
     32 H          -0.2940   -5.0938    1.5649 H       1  LIG1       0.18000000000000005
     33 H           0.7427   -5.3639    2.9766 H       1  LIG1       0.18000000000000005
     34 H           1.3332   -0.7164    4.5712 H       1  LIG1       0.16000000000000003
     35 H           0.0943   -3.1127    0.4276 H       1  LIG1       0.18000000000000005
     36 H           1.1110   -0.5335   -1.9487 H       1  LIG1       0.19999999999999996
     37 H           1.0222   -2.1380   -1.2043 H       1  LIG1       0.19999999999999996
     38 H          -1.6131    0.8255   -5.2411 H       1  LIG1       0.15000000000000002
     39 H          -2.2718   -0.6168   -4.4063 H       1  LIG1       0.16000000000000003
     40 H          -1.4435   -1.8907   -0.9266 H       1  LIG1       0.16000000000000003
     41 H          -0.2163    0.6646   -3.3041 H       1  LIG1       0.15000000000000002
     42 H          -1.4782    0.6500   -0.9751 H       1  LIG1          0.14
     43 H          -3.1926    1.9603   -3.8752 H       1  LIG1       0.43000000000000005
     44 H          -0.3921   -1.6357   -3.5266 H       1  LIG1       0.43000000000000005
     45 H          -0.7262    2.6804   -2.5137 H       1  LIG1       0.44999999999999996
     46 H          -3.5239    0.1975   -2.5003 H       1  LIG1       0.42000000000000004
@<TRIPOS>BOND
     1    38     6    1
     2    39     6    1
     3     6    22    1
     4     6    12    1
     5    22    43    1
     6    44    23    1
     7    41    12    1
     8    12    24    1
     9    12    14    1
    10    24    45    1
    11    23    11    1
    12    46    25    1
    13    36     5    1
    14    14    25    1
    15    14    11    1
    16    14    42    1
    17    27    17    2
    18    11     5    1
    19    11    40    1
    20     5    37    1
    21     5    21    1
    22    19    17   ar
    23    19    15   ar
    24    17    20   ar
    25    21    15   ar
    26    21    10   ar
    27    15    13   ar
    28    20    16   ar
    29    35     4    1
    30    10     4   ar
    31    10     9   ar
    32    16    13   ar
    33    16    26    2
    34     4     8   ar
    35    13    18   ar
    36    32     2    1
    37     9    18   ar
    38     9     3   ar
    39     8     2    1
    40     8     7   ar
    41     2    33    1
    42     2    31    1
    43     3     7   ar
    44     3    34    1
    45     7     1    1
    46     1    30    1
    47     1    28    1
    48     1    29    1
