@<TRIPOS>MOLECULE
AUNLIRXIJAVBNM-ZSBATXSLSA-N	6044309	-1128.8613602820092
 70 73 0 0 0
SMALL
MULLIKEN NwChem

@<TRIPOS>ATOM
      1 C          -6.0832   -3.1375    1.1349 C.3     1  LIG1      -0.5300000000000002
      2 C          -7.5058   -1.2276    0.2536 C.3     1  LIG1      -0.5199999999999996
      3 C          -2.6606    1.3448    1.9337 C.3     1  LIG1      -0.46999999999999975
      4 C           3.2570    1.0735    1.3791 C.3     1  LIG1      -0.4900000000000002
      5 C          -2.1858    1.5226   -1.5694 C.3     1  LIG1      -0.4900000000000002
      6 C          -4.4704   -1.0430    2.7428 C.3     1  LIG1      -0.3200000000000003
      7 C          -5.6582   -0.7609    1.8531 C.2     1  LIG1      -0.1900000000000004
      8 C          -3.1382   -1.1390    1.9630 C.3     1  LIG1      -0.2599999999999998
      9 C           3.1686   -1.6202   -0.2767 C.3     1  LIG1      -0.28000000000000025
     10 C           1.8608   -1.5491   -1.0755 C.3     1  LIG1      -0.34999999999999964
     11 C          -1.7404   -1.4800   -0.6875 C.3     1  LIG1      -0.29000000000000004
     12 C          -0.9486   -1.2164   -1.9913 C.3     1  LIG1      -0.2999999999999998
     13 C           5.6868    2.0250   -0.3147 C.3     1  LIG1       -0.3700000000000001
     14 C           1.1530    2.2414   -0.7239 C.3     1  LIG1      -0.34999999999999964
     15 C           4.2069    2.0738   -0.7523 C.3     1  LIG1      -0.29000000000000004
     16 C          -0.2195    2.0148   -0.0608 C.3     1  LIG1      -0.2999999999999998
     17 C           5.4806   -0.5297   -0.0596 C.3     1  LIG1       -0.3700000000000001
     18 C          -6.3600   -1.6537    1.1391 C.2     1  LIG1      0.17999999999999972
     19 C          -2.8001    0.0790    1.0745 C.3     1  LIG1      -0.08000000000000007
     20 C           4.0422   -0.4075   -0.5952 C.3     1  LIG1      -0.11000000000000032
     21 C           6.3293    0.6556   -0.4982 C.2     1  LIG1       0.46999999999999975
     22 C           1.2736   -0.1563   -1.1346 C.2     1  LIG1      0.09999999999999964
     23 C          -1.5520   -0.2238    0.2143 C.3     1  LIG1      -0.08000000000000007
     24 C          -0.1196    0.0544   -1.7240 C.3     1  LIG1      -0.17999999999999972
     25 C           1.9331    0.9427   -0.7204 C.2     1  LIG1      0.08000000000000007
     26 C           3.3547    0.9180   -0.1600 C.3     1  LIG1      0.040000000000000036
     27 C          -1.0370    0.8919   -0.7575 C.3     1  LIG1      0.1200000000000001
     28 O           7.4432    0.5205   -0.9685 O.2     1  LIG1      -0.5199999999999996
     29 H          -6.9852   -3.7036    1.4062 H       1  LIG1       0.16000000000000003
     30 H          -5.2822   -3.4288    1.8187 H       1  LIG1       0.16000000000000003
     31 H          -5.7989   -3.4720    0.1271 H       1  LIG1       0.16000000000000003
     32 H          -7.6669   -0.1449    0.2805 H       1  LIG1       0.16000000000000003
     33 H          -7.3262   -1.5191   -0.7911 H       1  LIG1       0.16000000000000003
     34 H          -8.4417   -1.7190    0.5555 H       1  LIG1       0.16000000000000003
     35 H          -1.8287    1.2468    2.6431 H       1  LIG1          0.14
     36 H          -2.4783    2.2368    1.3300 H       1  LIG1       0.15000000000000002
     37 H          -3.5702    1.5299    2.5148 H       1  LIG1       0.15000000000000002
     38 H           2.7519    2.0128    1.6308 H       1  LIG1       0.16000000000000003
     39 H           2.6725    0.2618    1.8214 H       1  LIG1       0.16000000000000003
     40 H           4.2350    1.0907    1.8708 H       1  LIG1       0.15000000000000002
     41 H          -2.7922    0.7732   -2.0885 H       1  LIG1       0.15000000000000002
     42 H          -2.8592    2.0982   -0.9261 H       1  LIG1       0.15000000000000002
     43 H          -1.7844    2.2096   -2.3246 H       1  LIG1          0.14
     44 H          -4.4013   -0.2616    3.5087 H       1  LIG1          0.14
     45 H          -4.6112   -1.9831    3.2905 H       1  LIG1          0.14
     46 H          -5.9357    0.2894    1.7561 H       1  LIG1          0.12
     47 H          -2.3144   -1.3000    2.6751 H       1  LIG1          0.12
     48 H          -3.1911   -2.0379    1.3393 H       1  LIG1          0.14
     49 H           3.7036   -2.5480   -0.5150 H       1  LIG1          0.14
     50 H           2.9539   -1.6539    0.7988 H       1  LIG1       0.15000000000000002
     51 H           2.0357   -1.9150   -2.0998 H       1  LIG1       0.15000000000000002
     52 H           1.1285   -2.2420   -0.6408 H       1  LIG1       0.15000000000000002
     53 H          -2.8025   -1.6442   -0.9066 H       1  LIG1          0.14
     54 H          -1.3886   -2.3823   -0.1761 H       1  LIG1          0.14
     55 H          -1.6378   -1.0230   -2.8194 H       1  LIG1          0.14
     56 H          -0.3415   -2.0708   -2.3007 H       1  LIG1          0.14
     57 H           6.2880    2.7602   -0.8578 H       1  LIG1       0.16000000000000003
     58 H           5.7627    2.2757    0.7534 H       1  LIG1       0.18999999999999995
     59 H           1.6842    3.0360   -0.1908 H       1  LIG1       0.15000000000000002
     60 H           1.0102    2.6083   -1.7524 H       1  LIG1          0.14
     61 H           4.1552    2.0176   -1.8476 H       1  LIG1       0.15000000000000002
     62 H           3.7930    3.0477   -0.4704 H       1  LIG1       0.15000000000000002
     63 H          -0.7844    2.9546   -0.0565 H       1  LIG1          0.13
     64 H          -0.0380    1.7568    0.9880 H       1  LIG1          0.14
     65 H           5.9611   -1.4454   -0.4185 H       1  LIG1       0.16000000000000003
     66 H           5.4743   -0.5734    1.0391 H       1  LIG1       0.18000000000000005
     67 H          -3.6456    0.2243    0.3868 H       1  LIG1          0.12
     68 H           4.1185   -0.3578   -1.6936 H       1  LIG1          0.14
     69 H          -0.7186   -0.4274    0.9042 H       1  LIG1       0.10999999999999999
     70 H           0.0091    0.6171   -2.6608 H       1  LIG1           0.13
@<TRIPOS>BOND
     1    55    12    1
     2    70    24    1
     3    43     5    1
     4    56    12    1
     5    51    10    1
     6    41     5    1
     7    12    24    1
     8    12    11    1
     9    61    15    1
    10    60    14    1
    11    24    22    1
    12    24    27    1
    13    68    20    1
    14     5    42    1
    15     5    27    1
    16    22    10    1
    17    22    25    2
    18    10    52    1
    19    10     9    1
    20    28    21    2
    21    53    11    1
    22    57    13    1
    23    33     2    1
    24    27    16    1
    25    27    23    1
    26    15    62    1
    27    15    13    1
    28    15    26    1
    29    14    25    1
    30    14    59    1
    31    14    16    1
    32    25    26    1
    33    11    54    1
    34    11    23    1
    35    20     9    1
    36    20    26    1
    37    20    17    1
    38    49     9    1
    39    21    13    1
    40    21    17    1
    41    65    17    1
    42    13    58    1
    43     9    50    1
    44    26     4    1
    45    16    63    1
    46    16    64    1
    47    17    66    1
    48    31     1    1
    49    23    69    1
    50    23    19    1
    51     2    32    1
    52     2    34    1
    53     2    18    1
    54    67    19    1
    55    19     3    1
    56    19     8    1
    57     1    18    1
    58     1    29    1
    59     1    30    1
    60    18     7    2
    61    36     3    1
    62    48     8    1
    63     4    38    1
    64     4    39    1
    65     4    40    1
    66    46     7    1
    67     7     6    1
    68     3    37    1
    69     3    35    1
    70     8    47    1
    71     8     6    1
    72     6    45    1
    73     6    44    1
