@<TRIPOS>MOLECULE
AUTOLBMXDDTRRT-UHFFFAOYSA-M	6044310	-726.4139492852568
 32 32 0 0 0
SMALL
MULLIKEN NwChem

@<TRIPOS>ATOM
      1 C           2.9504   -0.5123    1.4851 C.3     1  LIG1      -0.45999999999999996
      2 C          -1.5876   -0.8064    0.4434 C.3     1  LIG1      -0.2699999999999996
      3 C          -0.2125   -1.3243   -0.0173 C.3     1  LIG1      -0.28000000000000025
      4 C          -2.3733   -0.0139   -0.6193 C.3     1  LIG1      -0.2699999999999996
      5 C           0.7400   -0.2570   -0.5831 C.3     1  LIG1      -0.29000000000000004
      6 C          -2.5188   -0.7506   -1.9627 C.3     1  LIG1       -0.33000000000000007
      7 C           1.8972    0.5886    1.6580 C.3     1  LIG1           0.0
      8 C           1.0458    0.8859    0.3789 C.3     1  LIG1       0.03000000000000025
      9 C          -3.1122   -2.1841   -1.7221 C.2     1  LIG1       0.5099999999999998
     10 C           2.5244    2.5277    0.8495 C.3     1  LIG1       0.6600000000000001
     11 N           2.5827    1.8760    1.9509 N.3     1  LIG1      -0.5599999999999996
     12 N           1.8837    1.9518   -0.2286 N.3     1  LIG1      -0.6299999999999999
     13 O          -4.3334   -2.2034   -1.4305 O.co2   1  LIG1      -0.6799999999999997
     14 O          -2.2838   -3.1336   -1.7801 O.co2   1  LIG1      -0.6699999999999999
     15 O           3.0843    3.7444    0.6491 O.3     1  LIG1      -0.6400000000000006
     16 H           3.5988   -0.2914    0.6298 H       1  LIG1       0.15000000000000002
     17 H           2.4868   -1.4908    1.3243 H       1  LIG1       0.16000000000000003
     18 H           3.5764   -0.5628    2.3825 H       1  LIG1       0.15000000000000002
     19 H          -2.1852   -1.6816    0.7216 H       1  LIG1          0.13
     20 H          -1.4867   -0.1929    1.3538 H       1  LIG1          0.13
     21 H          -0.4028   -2.0850   -0.7834 H       1  LIG1          0.14
     22 H           0.2735   -1.8359    0.8273 H       1  LIG1          0.13
     23 H          -3.3827    0.1672   -0.2285 H       1  LIG1          0.12
     24 H          -1.9076    0.9764   -0.7670 H       1  LIG1          0.13
     25 H           0.2902    0.1739   -1.4871 H       1  LIG1       0.15000000000000002
     26 H           1.6821   -0.7189   -0.9042 H       1  LIG1          0.14
     27 H          -3.1961   -0.1722   -2.6066 H       1  LIG1       0.10999999999999999
     28 H          -1.5486   -0.8279   -2.4708 H       1  LIG1          0.12
     29 H           1.2383    0.3243    2.4921 H       1  LIG1          0.14
     30 H           0.0973    1.3351    0.7096 H       1  LIG1       0.15000000000000002
     31 H           1.4361    2.5823   -0.8844 H       1  LIG1          0.36
     32 H           3.5215    3.9571    1.4918 H       1  LIG1       0.44999999999999996
@<TRIPOS>BOND
     1    27     6    1
     2    28     6    1
     3     6     9    1
     4     6     4    1
     5    14     9   ar
     6     9    13   ar
     7    25     5    1
     8    26     5    1
     9    31    12    1
    10    21     3    1
    11    24     4    1
    12     4    23    1
    13     4     2    1
    14     5     3    1
    15     5     8    1
    16    12     8    1
    17    12    10    1
    18     3     2    1
    19     3    22    1
    20     8    30    1
    21     8     7    1
    22     2    19    1
    23     2    20    1
    24    16     1    1
    25    15    10    1
    26    15    32    1
    27    10    11    1
    28    17     1    1
    29     1     7    1
    30     1    18    1
    31     7    11    1
    32     7    29    1
