@<TRIPOS>MOLECULE
AVWRKZWQTYIKIY-UHFFFAOYSA-M	6044313	-413.3096492701731
 10 9 0 0 0
SMALL
MULLIKEN NwChem

@<TRIPOS>ATOM
      1 C           0.1212   -1.2870   -0.4010 C.2     1  LIG1       0.5700000000000003
      2 C           0.1005    1.1909    0.3720 C.2     1  LIG1       0.7300000000000004
      3 N          -0.8854   -2.1190   -0.6093 N.am    1  LIG1      -0.8200000000000003
      4 N          -0.4818    0.0251   -0.0011 N.am    1  LIG1      -0.6600000000000001
      5 O           1.3570   -1.3727   -0.4707 O.2     1  LIG1      -0.6500000000000004
      6 O          -0.8383    2.2009    0.6728 O.3     1  LIG1      -0.6500000000000004
      7 O           1.2739    1.4738    0.4770 O.2     1  LIG1      -0.5600000000000005
      8 H          -0.4504   -3.0046   -0.8849 H       1  LIG1          0.26
      9 H          -1.4891   -0.0636    0.0133 H       1  LIG1          0.35
     10 H          -1.7330    1.8665    0.5030 H       1  LIG1       0.43999999999999995
@<TRIPOS>BOND
     1     8     3    1
     2     3     1   am
     3     5     1    2
     4     1     4   am
     5     4     9    1
     6     4     2   am
     7     2     7    2
     8     2     6    1
     9    10     6    1
