@<TRIPOS>MOLECULE
AVXURJPOCDRRFD-UHFFFAOYSA-N	6044314	-131.69421898223527
 5 4 0 0 0
SMALL
MULLIKEN NwChem

@<TRIPOS>ATOM
      1 N           0.1104    0.4135   -0.5480 N.4     1  LIG1            -0.54
      2 O          -0.1409   -0.4772    0.5665 O.3     1  LIG1      -0.5899999999999999
      3 H          -0.4247    1.2501   -0.3035 H       1  LIG1       0.33999999999999997
      4 H           1.0893    0.6804   -0.4193 H       1  LIG1       0.33999999999999997
      5 H          -0.4579   -1.2741    0.1141 H       1  LIG1       0.43999999999999995
@<TRIPOS>BOND
     1     1     4    1
     2     1     3    1
     3     1     2    1
     4     5     2    1
