@<TRIPOS>MOLECULE
AWHAUPZHZYUHOM-VIFPVBQESA-N	6044315	-807.111650788051
 36 35 0 0 0
SMALL
MULLIKEN NwChem

@<TRIPOS>ATOM
      1 C          -2.3512    1.5994    2.9402 C.3     1  LIG1      -0.45999999999999996
      2 C           0.9141    3.1838   -1.2473 C.3     1  LIG1      -0.46999999999999975
      3 C          -0.9212    1.8900    2.4688 C.3     1  LIG1      -0.2599999999999998
      4 C           1.9907    2.1336   -1.5354 C.3     1  LIG1        -0.25
      5 C           0.0174    0.6839    2.6348 C.3     1  LIG1       -0.3700000000000001
      6 C           1.4928    0.6929   -1.3640 C.3     1  LIG1       -0.41000000000000014
      7 C           0.9696   -2.3441   -0.6191 C.3     1  LIG1       -0.08999999999999986
      8 C          -1.3575   -1.2858   -0.2252 C.3     1  LIG1       -0.08999999999999986
      9 C          -0.3298   -1.7877   -1.2358 C.3     1  LIG1       0.08999999999999986
     10 C          -0.3553   -0.5443    1.8291 C.2     1  LIG1       0.6600000000000001
     11 C           0.5012    0.2901   -2.4470 C.2     1  LIG1       0.6200000000000001
     12 O           0.6651   -3.4877    0.1547 O.3     1  LIG1      -0.6799999999999997
     13 O          -0.1666   -1.6892    2.1998 O.2     1  LIG1      -0.5299999999999994
     14 O           0.3212    0.9492   -3.4435 O.2     1  LIG1         -0.5
     15 O          -0.8901   -0.2170    0.6327 O.3     1  LIG1      -0.46000000000000085
     16 O          -0.1846   -0.8873   -2.3540 O.3     1  LIG1      -0.4900000000000002
     17 H          -2.7985    0.7814    2.3632 H       1  LIG1       0.15000000000000002
     18 H          -2.9940    2.4790    2.8177 H       1  LIG1       0.15000000000000002
     19 H          -2.3673    1.3115    3.9995 H       1  LIG1       0.15000000000000002
     20 H           0.5636    3.1221   -0.2084 H       1  LIG1       0.16000000000000003
     21 H           1.3012    4.1966   -1.4076 H       1  LIG1       0.15000000000000002
     22 H           0.0531    3.0457   -1.9075 H       1  LIG1       0.15000000000000002
     23 H          -0.9310    2.2012    1.4187 H       1  LIG1       0.16000000000000003
     24 H          -0.5035    2.7256    3.0423 H       1  LIG1       0.15000000000000002
     25 H           2.8430    2.2804   -0.8604 H       1  LIG1       0.15000000000000002
     26 H           2.3621    2.2615   -2.5561 H       1  LIG1       0.15000000000000002
     27 H           1.0423    0.9550    2.3352 H       1  LIG1       0.20999999999999996
     28 H           0.0769    0.3606    3.6802 H       1  LIG1       0.18000000000000005
     29 H           1.0315    0.5627   -0.3820 H       1  LIG1       0.19999999999999996
     30 H           2.3349   -0.0103   -1.4173 H       1  LIG1       0.19999999999999996
     31 H           1.6323   -2.6510   -1.4363 H       1  LIG1       0.17000000000000004
     32 H           1.4981   -1.5918   -0.0224 H       1  LIG1       0.17000000000000004
     33 H          -1.6869   -2.1222    0.3960 H       1  LIG1       0.18999999999999995
     34 H          -2.2097   -0.8613   -0.7576 H       1  LIG1       0.19999999999999996
     35 H          -0.8087   -2.6555   -1.7041 H       1  LIG1       0.18999999999999995
     36 H           0.3634   -3.1574    1.0223 H       1  LIG1       0.43999999999999995
@<TRIPOS>BOND
     1    14    11    2
     2    26     4    1
     3    11    16    1
     4    11     6    1
     5    16     9    1
     6    22     2    1
     7    35     9    1
     8     4     6    1
     9     4     2    1
    10     4    25    1
    11    31     7    1
    12    30     6    1
    13    21     2    1
    14     6    29    1
    15     2    20    1
    16     9     7    1
    17     9     8    1
    18    34     8    1
    19     7    32    1
    20     7    12    1
    21     8    33    1
    22     8    15    1
    23    12    36    1
    24    15    10    1
    25    23     3    1
    26    10    13    2
    27    10     5    1
    28    27     5    1
    29    17     1    1
    30     3     5    1
    31     3     1    1
    32     3    24    1
    33     5    28    1
    34    18     1    1
    35     1    19    1
