@<TRIPOS>MOLECULE
AWUCVROLDVIAJX-GSVOUGTGSA-L	6044317	-911.4919372808583
 17 16 0 0 0
SMALL
MULLIKEN NwChem

@<TRIPOS>ATOM
      1 C           0.8940   -0.6549    1.8600 C.3     1  LIG1       -0.07000000000000028
      2 C           0.8189   -1.3256   -0.6847 C.3     1  LIG1       -0.040000000000000036
      3 C           0.4603   -1.7035    0.7844 C.3     1  LIG1       0.08000000000000007
      4 O           2.0492    0.0974    1.5412 O.3     1  LIG1      -0.7200000000000006
      5 O          -0.9172   -1.9985    0.9393 O.3     1  LIG1      -0.7300000000000004
      6 O           0.7141    1.5743   -0.1473 O.3     1  LIG1      -0.7899999999999991
      7 O          -1.2099    1.7128   -1.8965 O.2     1  LIG1      -0.7400000000000002
      8 O          -1.6050    0.5233    0.3935 O.3     1  LIG1      -0.7899999999999991
      9 O          -0.1063   -0.5422   -1.3865 O.3     1  LIG1      -0.6400000000000006
     10 P          -0.6084    0.9804   -0.7112 P.3     1  LIG1       1.0199999999999996
     11 H           1.0821   -1.1971    2.8068 H       1  LIG1       0.10999999999999999
     12 H           0.0291    0.0019    2.0104 H       1  LIG1          0.12
     13 H           1.8251   -0.8712   -0.6709 H       1  LIG1       0.10999999999999999
     14 H           0.8959   -2.2801   -1.2411 H       1  LIG1          0.12
     15 H           1.0197   -2.6393    0.9851 H       1  LIG1       0.10999999999999999
     16 H           1.6556    0.7583    0.8660 H       1  LIG1       0.43000000000000005
     17 H          -1.3462   -1.1061    0.7021 H       1  LIG1       0.42000000000000004
@<TRIPOS>BOND
     1     7    10    2
     2     9    10    1
     3     9     2    1
     4    14     2    1
     5    10     6    1
     6    10     8    1
     7     2    13    1
     8     2     3    1
     9    17     5    1
    10     3     5    1
    11     3    15    1
    12     3     1    1
    13    16     4    1
    14     4     1    1
    15     1    12    1
    16     1    11    1
