@<TRIPOS>MOLECULE
AYEKOFBPNLCAJY-UHFFFAOYSA-L	11070906	-2293.5889563556607
 42 43 0 0 0
SMALL
MULLIKEN NwChem

@<TRIPOS>ATOM
      1 C          -1.3213    1.2155   -1.0151 C.3     1  LIG1      -0.5300000000000002
      2 C          -7.1808   -1.7063    0.0250 C.3     1  LIG1         -0.54
      3 C           0.9032    2.9958    0.4215 C.3     1  LIG1      -0.34999999999999964
      4 C           2.0902    2.2609   -0.2928 C.3     1  LIG1       -0.009999999999999787
      5 C          -3.6149   -1.4213   -0.8612 C.3     1  LIG1       -0.03000000000000025
      6 C          -1.4606   -1.3564    0.4566 C.3     1  LIG1       -0.3200000000000003
      7 C          -0.4352   -0.1127    2.2929 C.2     1  LIG1       -0.05999999999999961
      8 C          -0.7664    1.0727    0.3661 C.3     1  LIG1       0.3700000000000001
      9 C          -5.6865   -1.6165    0.0732 C.2     1  LIG1          0.54
     10 C          -2.9505   -1.4360    0.3554 C.2     1  LIG1       0.1299999999999999
     11 C           0.0315    1.9545    1.0484 C.3     1  LIG1       -0.1900000000000004
     12 C          -3.7156   -1.5830    1.5721 C.2     1  LIG1       0.4900000000000002
     13 N          -3.1801   -1.6569    2.7537 N.pl3   1  LIG1      -0.7400000000000002
     14 N          -4.9726   -1.5112   -1.0170 N.2     1  LIG1      -0.5199999999999996
     15 N          -5.1088   -1.6448    1.3394 N.pl3   1  LIG1      -0.6699999999999999
     16 N          -0.9935   -0.0940    1.0935 N.am    1  LIG1      -0.3099999999999996
     17 O           5.7881   -0.5089   -2.0050 O.3     1  LIG1      -0.7599999999999998
     18 O           4.8624    0.6532    0.1216 O.3     1  LIG1      -0.8000000000000007
     19 O           4.4510    1.6990   -2.1785 O.2     1  LIG1      -0.8000000000000007
     20 O           0.7294   -0.9691   -1.7970 O.2     1  LIG1      -0.7300000000000004
     21 O           1.7583   -0.5847    0.5507 O.3     1  LIG1        -0.75
     22 O           1.5540    1.3321   -1.1939 O.3     1  LIG1      -0.6199999999999992
     23 O           3.2670   -0.5607   -1.5882 O.3     1  LIG1      -0.6799999999999997
     24 P           4.7466    0.4179   -1.3873 P.3     1  LIG1       0.9700000000000006
     25 P           1.8310   -0.3361   -0.9455 P.3     1  LIG1       1.1600000000000001
     26 S           0.4213    1.3085    2.6268 S.3     1  LIG1      0.33999999999999986
     27 H          -0.8232    0.4798   -1.6644 H       1  LIG1       0.21999999999999997
     28 H          -2.4082    1.0668   -1.0157 H       1  LIG1       0.17000000000000004
     29 H          -1.0885    2.2072   -1.4030 H       1  LIG1       0.18000000000000005
     30 H          -7.6628   -0.8669    0.5534 H       1  LIG1       0.20999999999999996
     31 H          -7.4990   -1.6893   -1.0192 H       1  LIG1       0.18999999999999995
     32 H          -7.5551   -2.6323    0.4930 H       1  LIG1       0.19999999999999996
     33 H           0.3276    3.5598   -0.3228 H       1  LIG1       0.18000000000000005
     34 H           1.2827    3.7126    1.1630 H       1  LIG1       0.17000000000000004
     35 H           2.7402    1.7830    0.4486 H       1  LIG1          0.14
     36 H           2.7025    2.9844   -0.8448 H       1  LIG1          0.13
     37 H          -3.0393   -1.3321   -1.7785 H       1  LIG1       0.18999999999999995
     38 H          -0.9175   -1.4105   -0.5016 H       1  LIG1          0.25
     39 H          -1.0661   -2.1560    1.0878 H       1  LIG1       0.20999999999999996
     40 H          -0.5477   -0.9556    2.9549 H       1  LIG1          0.27
     41 H          -3.9028   -1.7647    3.4736 H       1  LIG1       0.31000000000000005
     42 H          -5.7078   -1.7634    2.1462 H       1  LIG1           0.39
@<TRIPOS>BOND
     1    19    24    2
     2    17    24    1
     3    20    25    2
     4    37     5    1
     5    27     1    1
     6    23    24    1
     7    23    25    1
     8    29     1    1
     9    24    18    1
    10    22    25    1
    11    22     4    1
    12    31     2    1
    13    14     5    1
    14    14     9    2
    15    28     1    1
    16     1     8    1
    17    25    21    1
    18     5    10    1
    19    36     4    1
    20    38     6    1
    21    33     3    1
    22     4     3    1
    23     4    35    1
    24     2     9    1
    25     2    32    1
    26     2    30    1
    27     9    15    1
    28    10     6    1
    29    10    12    2
    30     8    11    1
    31     8    16    1
    32     3    11    1
    33     3    34    1
    34     6    39    1
    35     6    16    1
    36    11    26    1
    37    16     7    1
    38    15    12    1
    39    15    42    1
    40    12    13    1
    41     7    26    2
    42     7    40    1
    43    13    41    1
