@<TRIPOS>MOLECULE
AYFVYJQAPQTCCC-HRFVKAFMSA-N	6044320	-438.1746657662665
 17 16 0 0 0
SMALL
MULLIKEN NwChem

@<TRIPOS>ATOM
      1 CG2         0.4665    2.2446   -0.0297 C.3     1  THR1      -0.4800000000000004
      2 CB          0.1239    1.0484   -0.9191 C.3     1  THR1       0.1299999999999999
      3 CA          0.6726   -0.2860   -0.3732 C.3     1  THR1       -0.04999999999999982
      4 C           0.0417   -0.6397    0.9736 C.2     1  THR1       0.5999999999999996
      5 N           0.4038   -1.3427   -1.3542 N.3     1  THR1      -0.7599999999999998
      6 OG1        -1.2772    0.9479   -1.1619 O.3     1  THR1      -0.6799999999999997
      7 O          -1.0450   -0.2679    1.3824 O.2     1  THR1      -0.5199999999999996
      8 OXT         0.8023   -1.5192    1.6652 O.3     1  THR1      -0.5800000000000001
      9 HG21        0.0174    2.1353    0.9636 H       1  THR1       0.16000000000000003
     10 HG22        0.0735    3.1595   -0.4825 H       1  THR1       0.16000000000000003
     11 HG23        1.5513    2.3524    0.0899 H       1  THR1       0.16000000000000003
     12 HB          0.5771    1.1815   -1.9073 H       1  THR1       0.15000000000000002
     13 HA          1.7567   -0.2091   -0.2317 H       1  THR1       0.18000000000000005
     14 H1          0.6208   -2.2608   -0.9723 H       1  THR1       0.33999999999999997
     15 H2         -0.5881   -1.3145   -1.5877 H       1  THR1       0.32999999999999996
     16 HG1        -1.6852    0.7852   -0.2915 H       1  THR1       0.42000000000000004
     17 HXT         0.2988   -1.7556    2.4682 H       1  THR1       0.44999999999999996
@<TRIPOS>BOND
     1    12     2    1
     2    15     5    1
     3     5    14    1
     4     5     3    1
     5     6     2    1
     6     6    16    1
     7     2     3    1
     8     2     1    1
     9    10     1    1
    10     3    13    1
    11     3     4    1
    12     1    11    1
    13     1     9    1
    14     4     7    2
    15     4     8    1
    16     8    17    1
