@<TRIPOS>MOLECULE
AYFVYJQAPQTCCC-GBXIJSLDSA-N	6044319	-438.16654008760366
 17 16 0 0 0
SMALL
MULLIKEN NwChem

@<TRIPOS>ATOM
      1 CG2        -0.4409   -0.9216    1.6595 C.3     1  THR1      -0.4900000000000002
      2 CB         -0.7654   -1.0435    0.1691 C.3     1  THR1       0.13999999999999968
      3 CA         -0.0953    0.0338   -0.7676 C.3     1  THR1       -0.07000000000000028
      4 C           0.8844    0.9262   -0.0112 C.2     1  THR1       0.5700000000000003
      5 N           0.5279   -0.6310   -1.9095 N.3     1  THR1      -0.7599999999999998
      6 OG1        -2.1723   -1.0868   -0.0431 O.3     1  THR1      -0.6699999999999999
      7 O           2.0862    0.7711    0.0250 O.2     1  THR1      -0.5099999999999998
      8 OXT         0.2540    1.9306    0.6500 O.3     1  THR1      -0.5800000000000001
      9 HG21       -0.8020    0.0303    2.0665 H       1  THR1       0.16000000000000003
     10 HG22        0.6384   -0.9768    1.8410 H       1  THR1       0.16000000000000003
     11 HG23       -0.9283   -1.7385    2.1992 H       1  THR1       0.16000000000000003
     12 HB         -0.4046   -2.0079   -0.2014 H       1  THR1       0.16000000000000003
     13 HA         -0.9068    0.6692   -1.1347 H       1  THR1       0.18000000000000005
     14 H1          0.7831    0.0636   -2.6107 H       1  THR1       0.32999999999999996
     15 H2          1.4140   -1.0309   -1.5974 H       1  THR1       0.31999999999999995
     16 HG1        -2.5554   -0.3095    0.3956 H       1  THR1       0.42000000000000004
     17 HXT         0.9458    2.4228    1.1327 H       1  THR1       0.44999999999999996
@<TRIPOS>BOND
     1    14     5    1
     2     5    15    1
     3     5     3    1
     4    13     3    1
     5     3     4    1
     6     3     2    1
     7    12     2    1
     8     6     2    1
     9     6    16    1
    10     4     7    2
    11     4     8    1
    12     2     1    1
    13     8    17    1
    14     1    10    1
    15     1     9    1
    16     1    11    1
