@<TRIPOS>MOLECULE
AYFXPGXAZMFWNH-ARJAWSKDSA-M	6044321	-531.4203042611757
 13 13 0 0 0
SMALL
MULLIKEN NwChem

@<TRIPOS>ATOM
      1 C          -1.5046   -1.2498   -0.0353 C.2     1  LIG1      -0.13999999999999968
      2 C          -0.9031   -2.2412   -0.7422 C.2     1  LIG1       -0.23000000000000043
      3 C          -0.7488    1.0238    0.7376 C.2     1  LIG1       -0.3099999999999996
      4 C          -0.5785   -0.1631    0.1153 C.2     1  LIG1       0.3700000000000001
      5 C           0.2155    2.2041    0.8523 C.2     1  LIG1       0.4900000000000002
      6 C           0.4524   -1.7947   -1.0698 C.2     1  LIG1       0.5800000000000001
      7 O          -0.0724    3.1220    0.0504 O.co2   1  LIG1      -0.6300000000000008
      8 O           1.0838    2.1177    1.7419 O.co2   1  LIG1      -0.6300000000000008
      9 O           1.3455   -2.3452   -1.6858 O.2     1  LIG1      -0.5600000000000005
     10 O           0.6053   -0.5256   -0.5279 O.3     1  LIG1      -0.5299999999999994
     11 H          -2.5102   -1.2324    0.3705 H       1  LIG1       0.19999999999999996
     12 H          -1.2926   -3.2047   -1.0419 H       1  LIG1       0.18999999999999995
     13 H          -1.7311    1.1686    1.1876 H       1  LIG1       0.19999999999999996
@<TRIPOS>BOND
     1     9     6    2
     2     6     2    1
     3     6    10    1
     4    12     2    1
     5     2     1    2
     6    10     4    1
     7     1     4    1
     8     1    11    1
     9     7     5   ar
    10     4     3    2
    11     3     5    1
    12     3    13    1
    13     5     8   ar
