@<TRIPOS>MOLECULE
AYFXPGXAZMFWNH-ONEGZZNKSA-M	6044322	-531.4213311328024
 13 13 0 0 0
SMALL
MULLIKEN NwChem

@<TRIPOS>ATOM
      1 C           1.0661   -0.6010   -0.3009 C.2     1  LIG1      -0.1200000000000001
      2 C           0.9561   -1.9369   -0.4780 C.2     1  LIG1       -0.21999999999999975
      3 C          -0.6463    1.1946    0.1901 C.2     1  LIG1       -0.33000000000000007
      4 C          -0.2552   -0.0706   -0.0450 C.2     1  LIG1       0.3899999999999997
      5 C           0.2820    2.4334    0.2220 C.2     1  LIG1          0.54
      6 C          -0.4583   -2.3070   -0.3377 C.2     1  LIG1       0.5999999999999996
      7 O          -0.3471    3.5027    0.4034 O.co2   1  LIG1      -0.6600000000000001
      8 O           1.5139    2.2316    0.0642 O.co2   1  LIG1      -0.6600000000000001
      9 O          -1.0130   -3.3854   -0.4158 O.2     1  LIG1      -0.5399999999999991
     10 O          -1.1624   -1.1409   -0.0743 O.3     1  LIG1      -0.5299999999999994
     11 H           1.9159    0.0685   -0.3188 H       1  LIG1       0.19999999999999996
     12 H           1.7286   -2.6652   -0.6869 H       1  LIG1       0.18999999999999995
     13 H          -1.7046    1.3802    0.3613 H       1  LIG1       0.15000000000000002
@<TRIPOS>BOND
     1    12     2    1
     2     2     6    1
     3     2     1    2
     4     9     6    2
     5     6    10    1
     6    11     1    1
     7     1     4    1
     8    10     4    1
     9     4     3    2
    10     8     5   ar
    11     3     5    1
    12     3    13    1
    13     5     7   ar
