@<TRIPOS>MOLECULE
AYGOSKULTISFCW-KSZLIROESA-M	6044323	-1556.6094331089143
 65 64 0 0 0
SMALL
MULLIKEN NwChem

@<TRIPOS>ATOM
      1 C           0.8982   -9.1857    2.7313 C.3     1  LIG1      -0.45999999999999996
      2 C           0.1070   -7.9305    3.1175 C.3     1  LIG1      -0.2599999999999998
      3 C           0.9778   -6.7855    3.6612 C.3     1  LIG1      -0.2599999999999998
      4 C           2.0555   -6.2637    2.6939 C.3     1  LIG1      -0.2699999999999996
      5 C           1.5286   -5.7759    1.3328 C.3     1  LIG1      -0.2699999999999996
      6 C           0.4564   -4.6745    1.4045 C.3     1  LIG1      -0.2699999999999996
      7 C           0.8727   -3.4061    2.1697 C.3     1  LIG1      -0.2699999999999996
      8 C           2.1442   -2.7163    1.6457 C.3     1  LIG1      -0.2699999999999996
      9 C           2.1000   -2.3087    0.1627 C.3     1  LIG1      -0.2699999999999996
     10 C           0.9334   -1.3809   -0.2221 C.3     1  LIG1      -0.2699999999999996
     11 C           0.8492   -0.0717    0.5809 C.3     1  LIG1      -0.28000000000000025
     12 C           2.1071    0.8133    0.5179 C.3     1  LIG1      -0.2699999999999996
     13 C           2.5682    1.2099   -0.8969 C.3     1  LIG1      -0.2599999999999998
     14 C           1.4802    1.8623   -1.7649 C.3     1  LIG1      -0.2999999999999998
     15 C          -2.0955    2.1702   -1.6847 C.3     1  LIG1       -0.04999999999999982
     16 C          -1.3366    3.1109   -2.6393 C.3     1  LIG1       -0.019999999999999574
     17 C           0.8272    3.0798   -1.0931 C.3     1  LIG1       0.1200000000000001
     18 C          -0.1801    3.8632   -1.9426 C.3     1  LIG1       0.08000000000000007
     19 N          -0.9828    2.3721   -3.8638 N.3     1  LIG1        -0.79
     20 O           1.8422    3.9893   -0.6453 O.3     1  LIG1      -0.6999999999999993
     21 O           0.5991    4.5741   -2.9531 O.3     1  LIG1      -0.6799999999999997
     22 O          -2.9319    5.0931   -0.9985 O.2     1  LIG1      -0.7300000000000004
     23 O          -4.6926    3.2851   -0.7007 O.3     1  LIG1      -0.7400000000000002
     24 O          -3.3694    4.0614    1.4131 O.3     1  LIG1      -0.6600000000000001
     25 O          -2.2328    2.6656   -0.3662 O.3     1  LIG1      -0.5899999999999999
     26 P          -3.2843    3.9493   -0.0712 P.3     1  LIG1       1.0899999999999999
     27 H           1.5853   -8.9895    1.9004 H       1  LIG1       0.15000000000000002
     28 H           0.2290   -9.9971    2.4216 H       1  LIG1          0.14
     29 H           1.4970   -9.5493    3.5765 H       1  LIG1          0.14
     30 H          -0.4641   -7.5787    2.2483 H       1  LIG1          0.14
     31 H          -0.6380   -8.1948    3.8804 H       1  LIG1          0.13
     32 H           0.3228   -5.9547    3.9550 H       1  LIG1          0.14
     33 H           1.4710   -7.1235    4.5844 H       1  LIG1          0.13
     34 H           2.5958   -5.4458    3.1880 H       1  LIG1          0.14
     35 H           2.8025   -7.0501    2.5193 H       1  LIG1          0.13
     36 H           2.3803   -5.4163    0.7406 H       1  LIG1          0.14
     37 H           1.1181   -6.6288    0.7743 H       1  LIG1          0.13
     38 H           0.1693   -4.4025    0.3805 H       1  LIG1          0.13
     39 H          -0.4527   -5.0800    1.8691 H       1  LIG1          0.13
     40 H           0.0374   -2.6952    2.1423 H       1  LIG1          0.14
     41 H           1.0195   -3.6510    3.2307 H       1  LIG1          0.13
     42 H           2.3318   -1.8258    2.2592 H       1  LIG1          0.14
     43 H           3.0097   -3.3752    1.8038 H       1  LIG1          0.13
     44 H           3.0506   -1.8202   -0.0895 H       1  LIG1          0.13
     45 H           2.0538   -3.2115   -0.4628 H       1  LIG1          0.13
     46 H           1.0179   -1.1483   -1.2918 H       1  LIG1          0.14
     47 H          -0.0162   -1.9219   -0.1112 H       1  LIG1          0.13
     48 H          -0.0213    0.4983    0.2340 H       1  LIG1          0.14
     49 H           0.6387   -0.3026    1.6340 H       1  LIG1          0.14
     50 H           1.9188    1.7261    1.0950 H       1  LIG1          0.13
     51 H           2.9397    0.3038    1.0242 H       1  LIG1          0.14
     52 H           3.4020    1.9139   -0.7995 H       1  LIG1          0.13
     53 H           2.9573    0.3257   -1.4227 H       1  LIG1          0.14
     54 H           1.9135    2.1691   -2.7263 H       1  LIG1          0.13
     55 H           0.7045    1.1198   -1.9880 H       1  LIG1       0.15000000000000002
     56 H          -3.0745    1.9306   -2.1199 H       1  LIG1       0.15000000000000002
     57 H          -1.5379    1.2250   -1.5972 H       1  LIG1       0.16000000000000003
     58 H          -2.0326    3.9031   -2.9356 H       1  LIG1          0.14
     59 H           0.2812    2.7584   -0.2026 H       1  LIG1       0.16000000000000003
     60 H          -0.6458    4.5935   -1.2759 H       1  LIG1       0.15000000000000002
     61 H          -0.3752    2.9816   -4.4120 H       1  LIG1       0.31999999999999995
     62 H          -0.3999    1.5724   -3.6190 H       1  LIG1       0.31999999999999995
     63 H           1.9912    4.5596   -1.4209 H       1  LIG1       0.41000000000000003
     64 H           0.1141    5.3948   -3.1269 H       1  LIG1       0.43000000000000005
     65 H          -4.9098    3.8725   -1.4407 H       1  LIG1       0.43999999999999995
@<TRIPOS>BOND
     1    61    19    1
     2    19    62    1
     3    19    16    1
     4    64    21    1
     5    21    18    1
     6    58    16    1
     7    54    14    1
     8    16    18    1
     9    16    15    1
    10    56    15    1
    11    55    14    1
    12    18    60    1
    13    18    17    1
    14    14    17    1
    15    14    13    1
    16    15    57    1
    17    15    25    1
    18    65    23    1
    19    53    13    1
    20    63    20    1
    21    46    10    1
    22    17    20    1
    23    17    59    1
    24    22    26    2
    25    13    52    1
    26    13    12    1
    27    23    26    1
    28    45     9    1
    29    25    26    1
    30    10    47    1
    31    10     9    1
    32    10    11    1
    33    44     9    1
    34    26    24    1
    35     9     8    1
    36    48    11    1
    37    38     6    1
    38    12    11    1
    39    12    51    1
    40    12    50    1
    41    11    49    1
    42    36     5    1
    43    37     5    1
    44     5     6    1
    45     5     4    1
    46     6    39    1
    47     6     7    1
    48     8    43    1
    49     8     7    1
    50     8    42    1
    51    27     1    1
    52    40     7    1
    53     7    41    1
    54    30     2    1
    55    28     1    1
    56    35     4    1
    57     4    34    1
    58     4     3    1
    59     1     2    1
    60     1    29    1
    61     2     3    1
    62     2    31    1
    63     3    32    1
    64     3    33    1
