@<TRIPOS>MOLECULE
AYORDFMYYBNSBO-GKMLISQESA-J	11070908	-4448.44828122153
 114 116 0 0 0
SMALL
MULLIKEN NwChem

@<TRIPOS>ATOM
      1 C           1.7496    5.2754   -5.5523 C.3     1  LIG1      -0.45999999999999996
      2 C          -1.7358   -0.5884   -5.5927 C.3     1  LIG1      -0.46999999999999975
      3 C          -1.8016    1.7827   -4.7567 C.3     1  LIG1      -0.46999999999999975
      4 C           2.9515    4.4260   -5.1284 C.3     1  LIG1      -0.2400000000000002
      5 C           2.7697    3.7980   -3.7400 C.3     1  LIG1      -0.29000000000000004
      6 C           3.9017    2.8311   -3.3719 C.3     1  LIG1      -0.28000000000000025
      7 C           3.7608    2.1704   -1.9932 C.3     1  LIG1      -0.29000000000000004
      8 C           3.6925    3.1676   -0.8183 C.3     1  LIG1      -0.3200000000000003
      9 C           3.7716    2.5243    0.5418 C.2     1  LIG1      -0.11000000000000032
     10 C           2.7586    2.4679    1.4133 C.2     1  LIG1      -0.13999999999999968
     11 C           2.7608    1.8967    2.8123 C.3     1  LIG1      -0.33999999999999986
     12 C           3.5033   -1.6971   -4.4236 C.3     1  LIG1       -0.3600000000000003
     13 C           3.5507   -0.7288   -5.6335 C.3     1  LIG1       -0.1299999999999999
     14 C           4.3520   -1.0153   -0.7724 C.3     1  LIG1       -0.15000000000000036
     15 C           4.3040   -2.2314    0.1681 C.3     1  LIG1       -0.46999999999999975
     16 C           3.8691   -0.3495    2.6784 C.3     1  LIG1       -0.3899999999999997
     17 C          -1.6637   -0.8499    1.4503 C.3     1  LIG1       -0.08000000000000007
     18 C          -0.3663    0.0373   -3.6415 C.3     1  LIG1       -0.07000000000000028
     19 C          -2.8761    1.3687    7.1547 C.ar    1  LIG1       0.15000000000000036
     20 C          -5.7684    0.2361    4.1120 C.ar    1  LIG1       0.20999999999999996
     21 C           3.9996    1.0884    3.2027 C.3     1  LIG1       0.15000000000000036
     22 C          -2.2238   -1.9478    2.3638 C.3     1  LIG1       0.1200000000000001
     23 C           4.2900   -1.2121   -3.2124 C.2     1  LIG1       0.5999999999999996
     24 C           5.1770   -1.0901    2.7492 C.2     1  LIG1       0.2999999999999998
     25 C          -5.0953    1.4705    5.7002 C.ar    1  LIG1       0.1900000000000004
     26 C          -4.6077   -1.7593    2.4610 C.3     1  LIG1       0.1299999999999999
     27 C          -3.4881   -2.7106    1.9054 C.3     1  LIG1       0.08000000000000007
     28 C           0.2414    0.9436   -5.9877 C.3     1  LIG1       0.08000000000000007
     29 C          -4.8497    2.4345    6.6815 C.ar    1  LIG1       0.41999999999999993
     30 C          -4.0992    0.4821    5.5227 C.ar    1  LIG1       0.5300000000000002
     31 C           1.3405   -0.1509   -6.1069 C.2     1  LIG1       0.5199999999999996
     32 C          -3.9643   -1.5033    3.8596 C.3     1  LIG1       0.2699999999999996
     33 C          -0.8997    0.5594   -4.9893 C.3     1  LIG1       0.07000000000000028
     34 N          -5.7741    3.4532    6.9408 N.pl3   1  LIG1      -0.7800000000000002
     35 N           3.6571   -1.2987   -2.0121 N.am    1  LIG1      -0.6399999999999997
     36 N           2.4983    0.2626   -5.6057 N.am    1  LIG1      -0.6299999999999999
     37 N          -3.7266    2.3896    7.4137 N.ar    1  LIG1        -0.54
     38 N          -2.9740    0.3955    6.2541 N.ar    1  LIG1        -0.54
     39 N          -6.1380    1.3006    4.8110 N.ar    1  LIG1      -0.5899999999999999
     40 N          -4.5495   -0.2914    4.4825 N.ar    1  LIG1        -0.54
     41 O           4.1451    1.1099    4.6277 O.3     1  LIG1      -0.6999999999999993
     42 O           5.4682   -0.8415   -3.3304 O.2     1  LIG1      -0.6199999999999992
     43 O           5.9708   -0.9404    3.6743 O.2     1  LIG1         -0.5
     44 O          -5.9172   -2.0727    2.4277 O.3     1  LIG1      -0.7799999999999994
     45 O           0.8538    2.1798   -5.6423 O.3     1  LIG1      -0.7100000000000009
     46 O           1.0439   -1.2619   -6.6264 O.2     1  LIG1      -0.6999999999999993
     47 O          -4.1760   -6.4129    2.8649 O.2     1  LIG1      -0.7100000000000009
     48 O          -4.7951   -4.5155    4.5699 O.3     1  LIG1      -0.7200000000000006
     49 O          -5.8900   -4.6184    2.2151 O.3     1  LIG1      -0.7799999999999994
     50 O           0.9293   -1.5785   -1.3529 O.2     1  LIG1      -0.6799999999999997
     51 O           1.4541   -1.0179    1.1636 O.3     1  LIG1      -0.6600000000000001
     52 O           0.2357    3.0092   -1.3039 O.3     1  LIG1      -0.6999999999999993
     53 O          -1.8912    1.5141   -1.3564 O.2     1  LIG1      -0.6300000000000008
     54 O          -0.9729   -1.4117    0.3057 O.3     1  LIG1      -0.5700000000000003
     55 O           0.2419    1.0872   -2.8411 O.3     1  LIG1      -0.5899999999999999
     56 O          -2.5862   -1.2771    3.6134 O.3     1  LIG1      -0.5600000000000005
     57 O          -3.3888   -4.0173    2.4470 O.3     1  LIG1      -0.6500000000000004
     58 O           0.3678    0.7289   -0.2862 O.3     1  LIG1      -0.6600000000000001
     59 P          -4.6060   -4.9949    3.1425 P.3     1  LIG1       1.0299999999999994
     60 P           0.5453   -0.9657   -0.0328 P.3     1  LIG1       1.2200000000000006
     61 P          -0.4128    1.5163   -1.4343 P.3     1  LIG1       1.2799999999999994
     62 S           5.6353   -2.2507    1.4585 S.3     1  LIG1      0.08999999999999986
     63 H           1.5383    6.0649   -4.8166 H       1  LIG1          0.14
     64 H           0.8719    4.6275   -5.6352 H       1  LIG1       0.16000000000000003
     65 H           1.9165    5.7593   -6.5258 H       1  LIG1          0.13
     66 H          -1.1106   -1.4654   -5.7745 H       1  LIG1       0.15000000000000002
     67 H          -2.5689   -0.8509   -4.9274 H       1  LIG1          0.14
     68 H          -2.1585   -0.2784   -6.5586 H       1  LIG1          0.14
     69 H          -2.5788    1.5603   -4.0173 H       1  LIG1          0.14
     70 H          -1.2114    2.6233   -4.3873 H       1  LIG1       0.16000000000000003
     71 H          -2.2795    2.0856   -5.7002 H       1  LIG1          0.14
     72 H           3.0908    3.6231   -5.8624 H       1  LIG1          0.13
     73 H           3.8746    5.0298   -5.1364 H       1  LIG1          0.13
     74 H           1.8173    3.2525   -3.7351 H       1  LIG1          0.14
     75 H           2.6910    4.6066   -2.9962 H       1  LIG1          0.14
     76 H           3.9341    2.0350   -4.1256 H       1  LIG1          0.14
     77 H           4.8656    3.3673   -3.4194 H       1  LIG1          0.13
     78 H           2.8741    1.5241   -1.9830 H       1  LIG1          0.14
     79 H           4.6151    1.4985   -1.8535 H       1  LIG1       0.15000000000000002
     80 H           4.5240    3.8863   -0.9285 H       1  LIG1       0.15000000000000002
     81 H           2.7732    3.7632   -0.8730 H       1  LIG1          0.14
     82 H           4.7348    2.0726    0.7828 H       1  LIG1       0.15000000000000002
     83 H           1.7984    2.8763    1.0978 H       1  LIG1          0.14
     84 H           1.8686    1.2682    2.9305 H       1  LIG1       0.16000000000000003
     85 H           2.6578    2.7210    3.5350 H       1  LIG1       0.16000000000000003
     86 H           3.9912   -2.6442   -4.7037 H       1  LIG1       0.16000000000000003
     87 H           2.4636   -1.9311   -4.1790 H       1  LIG1       0.16000000000000003
     88 H           4.5340   -0.2385   -5.6240 H       1  LIG1       0.10999999999999999
     89 H           3.4804   -1.3433   -6.5470 H       1  LIG1       0.10999999999999999
     90 H           5.3833   -0.7645   -1.0304 H       1  LIG1       0.18000000000000005
     91 H           3.8953   -0.1539   -0.2764 H       1  LIG1       0.18999999999999995
     92 H           3.3207   -2.3209    0.6394 H       1  LIG1       0.22999999999999998
     93 H           4.5053   -3.1444   -0.4021 H       1  LIG1       0.20999999999999996
     94 H           3.4048   -0.3639    1.6959 H       1  LIG1       0.21999999999999997
     95 H           3.1486   -0.8800    3.3154 H       1  LIG1       0.19999999999999996
     96 H          -0.9748   -0.2426    2.0461 H       1  LIG1       0.17000000000000004
     97 H          -2.4536   -0.2031    1.0584 H       1  LIG1       0.18000000000000005
     98 H          -1.1868   -0.4057   -3.0700 H       1  LIG1       0.16000000000000003
     99 H           0.3992   -0.7250   -3.7749 H       1  LIG1       0.18000000000000005
    100 H          -1.9784    1.3525    7.7734 H       1  LIG1       0.16000000000000003
    101 H          -6.3213   -0.2956    3.3349 H       1  LIG1       0.20999999999999996
    102 H           4.8950    1.5532    2.7587 H       1  LIG1          0.14
    103 H          -1.4279   -2.6674    2.5808 H       1  LIG1       0.16000000000000003
    104 H          -4.3951   -0.7983    1.9131 H       1  LIG1       0.08999999999999997
    105 H          -3.5484   -2.7628    0.8074 H       1  LIG1          0.14
    106 H          -0.2316    1.0489   -6.9806 H       1  LIG1       0.10999999999999999
    107 H          -4.1342   -2.3568    4.5264 H       1  LIG1       0.18000000000000005
    108 H          -5.3171    4.2929    7.2797 H       1  LIG1          0.36
    109 H          -6.3668    3.6260    6.1351 H       1  LIG1          0.36
    110 H           4.8625    0.4722    4.7957 H       1  LIG1       0.42000000000000004
    111 H          -6.0258   -3.6006    2.3130 H       1  LIG1       0.42000000000000004
    112 H           1.7642    1.8484   -5.4034 H       1  LIG1       0.42000000000000004
    113 H           2.6380   -1.4495   -1.9422 H       1  LIG1       0.41000000000000003
    114 H           1.0660    3.0256   -1.8075 H       1  LIG1           0.48
@<TRIPOS>BOND
     1   106    28    1
     2    46    31    2
     3    68     2    1
     4    89    13    1
     5    65     1    1
     6    31    28    1
     7    31    36   am
     8    28    45    1
     9    28    33    1
    10    72     4    1
    11    66     2    1
    12    71     3    1
    13    45   112    1
    14    64     1    1
    15    13    88    1
    16    13    36    1
    17    13    12    1
    18     2    33    1
    19     2    67    1
    20     1     4    1
    21     1    63    1
    22    73     4    1
    23     4     5    1
    24    33     3    1
    25    33    18    1
    26     3    70    1
    27     3    69    1
    28    86    12    1
    29    12    87    1
    30    12    23    1
    31    76     6    1
    32    99    18    1
    33     5    74    1
    34     5     6    1
    35     5    75    1
    36    18    98    1
    37    18    55    1
    38    77     6    1
    39     6     7    1
    40    42    23    2
    41    23    35   am
    42    55    61    1
    43    35   113    1
    44    35    14    1
    45     7    78    1
    46     7    79    1
    47     7     8    1
    48   114    52    1
    49    61    53    2
    50    61    52    1
    51    61    58    1
    52    50    60    2
    53    90    14    1
    54    80     8    1
    55    81     8    1
    56     8     9    1
    57    14    91    1
    58    14    15    1
    59    93    15    1
    60    58    60    1
    61    60    54    1
    62    60    51    1
    63    15    92    1
    64    15    62    1
    65    54    17    1
    66     9    82    1
    67     9    10    2
    68   105    27    1
    69    97    17    1
    70    83    10    1
    71    10    11    1
    72    17    96    1
    73    17    22    1
    74    62    24    1
    75    94    16    1
    76    27    22    1
    77    27    57    1
    78    27    26    1
    79   104    26    1
    80    49   111    1
    81    49    59    1
    82    22   103    1
    83    22    56    1
    84    44    26    1
    85    57    59    1
    86    26    32    1
    87    16    24    1
    88    16    21    1
    89    16    95    1
    90    24    43    2
    91   102    21    1
    92    11    84    1
    93    11    21    1
    94    11    85    1
    95    47    59    2
    96    59    48    1
    97    21    41    1
    98   101    20    1
    99    56    32    1
   100    32    40    1
   101    32   107    1
   102    20    40   ar
   103    20    39   ar
   104    40    30   ar
   105    41   110    1
   106    39    25   ar
   107    30    25   ar
   108    30    38   ar
   109    25    29   ar
   110   109    34    1
   111    38    19   ar
   112    29    34    1
   113    29    37   ar
   114    34   108    1
   115    19    37   ar
   116    19   100    1
