@<TRIPOS>MOLECULE
AYORDFMYYBNSBO-QCCSJADRSA-J	11070909	-4448.470812449392
 114 116 0 0 0
SMALL
MULLIKEN NwChem

@<TRIPOS>ATOM
      1 C           6.7186   -0.2057    3.7834 C.3     1  LIG1      -0.4800000000000004
      2 C           1.9026    4.6441    3.3873 C.3     1  LIG1      -0.45999999999999996
      3 C           3.6783    5.9280    2.1396 C.3     1  LIG1      -0.4800000000000004
      4 C           5.3778   -0.2673    4.5242 C.3     1  LIG1      -0.2699999999999996
      5 C           4.4597   -1.4158    4.0693 C.3     1  LIG1      -0.2599999999999998
      6 C           4.1546   -1.4453    2.5639 C.3     1  LIG1      -0.29000000000000004
      7 C           3.1367   -2.5224    2.1540 C.3     1  LIG1      -0.2599999999999998
      8 C           1.6830   -2.2189    2.5790 C.3     1  LIG1      -0.3200000000000003
      9 C           0.7421   -3.3159    2.1531 C.2     1  LIG1      -0.1200000000000001
     10 C          -0.1412   -3.2868    1.1468 C.2     1  LIG1      -0.13999999999999968
     11 C          -0.4122   -2.1402    0.2088 C.3     1  LIG1      -0.3600000000000003
     12 C           5.7660    2.3513   -0.9635 C.3     1  LIG1       -0.3799999999999999
     13 C           5.8012    1.4689    0.3276 C.3     1  LIG1       -0.1299999999999999
     14 C           4.5686    0.2354   -3.8700 C.3     1  LIG1       -0.13999999999999968
     15 C           3.4366   -0.7926   -3.8026 C.3     1  LIG1       -0.41999999999999993
     16 C          -0.1713   -1.3496   -2.2120 C.3     1  LIG1       -0.40000000000000036
     17 C          -3.5908    1.2253    0.0951 C.3     1  LIG1       -0.07000000000000028
     18 C           2.5099    4.0534    1.0236 C.3     1  LIG1       -0.05999999999999961
     19 C          -1.7556   -4.5087   -2.6476 C.ar    1  LIG1       0.15000000000000036
     20 C          -4.8691   -3.7266    0.2984 C.ar    1  LIG1       0.23000000000000043
     21 C           0.4157   -2.2563   -1.0878 C.3     1  LIG1       0.13999999999999968
     22 C          -4.3882    0.5522   -1.0123 C.3     1  LIG1       0.1200000000000001
     23 C           5.8731    1.5194   -2.2290 C.2     1  LIG1       0.5599999999999996
     24 C           0.7908   -1.4670   -3.3665 C.2     1  LIG1       0.2999999999999998
     25 C          -3.3239   -4.9234   -0.5326 C.ar    1  LIG1       0.20000000000000018
     26 C          -5.9000   -1.1174   -0.1425 C.3     1  LIG1       0.16999999999999993
     27 C          -5.8837    0.3648   -0.6465 C.3     1  LIG1       0.040000000000000036
     28 C           4.1556    3.5696    2.9468 C.3     1  LIG1       0.07000000000000028
     29 C          -2.3155   -5.8375   -0.8577 C.ar    1  LIG1       0.41999999999999993
     30 C          -3.4145   -3.7815   -1.3542 C.ar    1  LIG1          0.54
     31 C           5.2198    3.2008    1.8645 C.2     1  LIG1       0.5099999999999998
     32 C          -4.9091   -1.6981   -1.1953 C.3     1  LIG1       0.28000000000000025
     33 C           3.0572    4.5381    2.3781 C.3     1  LIG1       0.07000000000000028
     34 N          -2.0985   -6.9840   -0.0928 N.pl3   1  LIG1      -0.7800000000000002
     35 N           4.6731    1.0534   -2.6806 N.am    1  LIG1      -0.6399999999999997
     36 N           5.0195    1.9726    1.4332 N.am    1  LIG1      -0.5899999999999999
     37 N          -1.5333   -5.6286   -1.9266 N.ar    1  LIG1        -0.54
     38 N          -2.6582   -3.5491   -2.4374 N.ar    1  LIG1      -0.5300000000000002
     39 N          -4.2510   -4.8784    0.4944 N.ar    1  LIG1      -0.5899999999999999
     40 N          -4.3986   -3.0094   -0.7842 N.ar    1  LIG1        -0.54
     41 O           1.7974   -1.9984   -0.8788 O.3     1  LIG1      -0.7100000000000009
     42 O           6.9481    1.2540   -2.7904 O.2     1  LIG1      -0.6199999999999992
     43 O           0.9915   -2.4906   -3.9894 O.2     1  LIG1      -0.47000000000000064
     44 O          -7.0493   -1.7861    0.0204 O.3     1  LIG1      -0.7799999999999994
     45 O           3.5632    2.3994    3.4855 O.3     1  LIG1      -0.6999999999999993
     46 O           6.0552    4.0832    1.5067 O.2     1  LIG1      -0.7100000000000009
     47 O          -8.7754    1.4004   -2.9990 O.2     1  LIG1      -0.7100000000000009
     48 O          -8.9201   -0.5485   -1.3357 O.3     1  LIG1      -0.7799999999999994
     49 O          -8.4311    1.8450   -0.4278 O.3     1  LIG1      -0.7200000000000006
     50 O          -1.0075    3.2447    1.1212 O.3     1  LIG1      -0.6999999999999993
     51 O          -1.0682    0.7118    1.7376 O.2     1  LIG1      -0.6199999999999992
     52 O           2.5095    2.2746   -1.2543 O.2     1  LIG1      -0.6600000000000001
     53 O           2.1947    0.3395    0.5217 O.3     1  LIG1      -0.6500000000000004
     54 O          -2.2771    1.6333   -0.3927 O.3     1  LIG1      -0.5399999999999991
     55 O           1.7729    2.8213    1.1586 O.3     1  LIG1      -0.6300000000000008
     56 O          -3.8351   -0.7710   -1.2779 O.3     1  LIG1      -0.5500000000000007
     57 O          -6.6606    0.5514   -1.8147 O.3     1  LIG1      -0.6300000000000008
     58 O           0.1803    1.6208   -0.4137 O.3     1  LIG1      -0.6500000000000004
     59 P          -8.3211    0.9396   -1.6372 P.3     1  LIG1       1.0099999999999998
     60 P          -1.0419    1.6938    0.6261 P.3     1  LIG1       1.2200000000000006
     61 P           1.8406    1.6810   -0.0498 P.3     1  LIG1       1.2699999999999996
     62 S           1.7944    0.0374   -3.6646 S.3     1  LIG1      0.03999999999999915
     63 H           7.3885    0.5343    4.2423 H       1  LIG1          0.14
     64 H           7.2335   -1.1795    3.7897 H       1  LIG1          0.14
     65 H           6.5608    0.1033    2.7469 H       1  LIG1       0.17000000000000004
     66 H           1.4691    3.6582    3.5652 H       1  LIG1       0.15000000000000002
     67 H           2.2642    5.0355    4.3489 H       1  LIG1          0.14
     68 H           1.1199    5.3238    3.0178 H       1  LIG1          0.14
     69 H           4.0145    6.3564    3.0943 H       1  LIG1          0.14
     70 H           2.9439    6.6214    1.7023 H       1  LIG1          0.14
     71 H           4.5530    5.8421    1.4893 H       1  LIG1       0.16000000000000003
     72 H           4.8609    0.6877    4.3768 H       1  LIG1          0.13
     73 H           5.5591   -0.3715    5.6082 H       1  LIG1          0.12
     74 H           4.9120   -2.3825    4.3592 H       1  LIG1          0.12
     75 H           3.5177   -1.3423    4.6306 H       1  LIG1          0.13
     76 H           3.7973   -0.4688    2.2199 H       1  LIG1       0.17000000000000004
     77 H           5.0915   -1.6249    2.0174 H       1  LIG1          0.12
     78 H           3.1318   -2.6201    1.0638 H       1  LIG1          0.13
     79 H           3.4457   -3.5025    2.5622 H       1  LIG1          0.12
     80 H           1.3941   -1.2573    2.1468 H       1  LIG1       0.15000000000000002
     81 H           1.6306   -2.1059    3.6736 H       1  LIG1          0.13
     82 H           0.8424   -4.2535    2.7117 H       1  LIG1          0.12
     83 H          -0.7118   -4.1960    0.9427 H       1  LIG1          0.13
     84 H          -1.4779   -2.1137   -0.0510 H       1  LIG1          0.14
     85 H          -0.1900   -1.1802    0.6785 H       1  LIG1       0.18000000000000005
     86 H           6.5733    3.0849   -0.9348 H       1  LIG1          0.14
     87 H           4.8134    2.8841   -0.9681 H       1  LIG1       0.18000000000000005
     88 H           5.3951    0.4802    0.0786 H       1  LIG1          0.12
     89 H           6.8638    1.3208    0.5993 H       1  LIG1          0.12
     90 H           5.5249   -0.2873   -3.9889 H       1  LIG1       0.18000000000000005
     91 H           4.4393    0.8608   -4.7714 H       1  LIG1       0.17000000000000004
     92 H           3.4500   -1.4338   -4.6901 H       1  LIG1       0.19999999999999996
     93 H           3.5308   -1.4169   -2.9085 H       1  LIG1       0.19999999999999996
     94 H          -0.2578   -0.3192   -1.8602 H       1  LIG1       0.18999999999999995
     95 H          -1.1617   -1.7210   -2.4931 H       1  LIG1       0.19999999999999996
     96 H          -4.1118    2.1328    0.4205 H       1  LIG1       0.18999999999999995
     97 H          -3.4669    0.5461    0.9421 H       1  LIG1       0.18999999999999995
     98 H           3.3205    3.9229    0.3081 H       1  LIG1       0.18999999999999995
     99 H           1.8198    4.8107    0.6173 H       1  LIG1       0.15000000000000002
    100 H          -1.0764   -4.3450   -3.4818 H       1  LIG1       0.16000000000000003
    101 H          -5.7382   -3.3448    0.8255 H       1  LIG1       0.19999999999999996
    102 H           0.3731   -3.2862   -1.4618 H       1  LIG1          0.14
    103 H          -4.3114    1.1467   -1.9295 H       1  LIG1       0.16000000000000003
    104 H          -5.2655   -1.0747    0.7938 H       1  LIG1       0.07999999999999996
    105 H          -6.2208    1.0540    0.1381 H       1  LIG1       0.15000000000000002
    106 H           4.6649    4.1078    3.7638 H       1  LIG1       0.09999999999999998
    107 H          -5.4077   -1.8152   -2.1649 H       1  LIG1       0.15000000000000002
    108 H          -1.1283   -7.2769   -0.1378 H       1  LIG1          0.36
    109 H          -2.4261   -6.8639    0.8603 H       1  LIG1          0.37
    110 H           1.9025   -1.1269   -0.4208 H       1  LIG1       0.45999999999999996
    111 H          -8.2293   -1.0709   -0.7901 H       1  LIG1       0.42000000000000004
    112 H           3.7131    1.7619    2.7382 H       1  LIG1       0.43999999999999995
    113 H          -0.0886    3.3784    1.4436 H       1  LIG1          0.49
    114 H           3.8186    1.3726   -2.2034 H       1  LIG1       0.42000000000000004
@<TRIPOS>BOND
     1    91    14    1
     2    92    15    1
     3    43    24    2
     4    90    14    1
     5    14    15    1
     6    14    35    1
     7    15    62    1
     8    15    93    1
     9    62    24    1
    10   100    19    1
    11    24    16    1
    12    47    59    2
    13    42    23    2
    14    35    23   am
    15    35   114    1
    16    19    38   ar
    17    19    37   ar
    18    95    16    1
    19    38    30   ar
    20    23    12    1
    21    16    94    1
    22    16    21    1
    23   107    32    1
    24   103    22    1
    25    37    29   ar
    26    57    59    1
    27    57    27    1
    28    59    48    1
    29    59    49    1
    30   102    21    1
    31    30    40   ar
    32    30    25   ar
    33    48   111    1
    34    56    32    1
    35    56    22    1
    36    52    61    2
    37    32    40    1
    38    32    26    1
    39    21    41    1
    40    21    11    1
    41    22    27    1
    42    22    17    1
    43    87    12    1
    44    12    86    1
    45    12    13    1
    46    41   110    1
    47    29    25   ar
    48    29    34    1
    49    40    20   ar
    50    27    26    1
    51    27   105    1
    52    25    39   ar
    53    58    61    1
    54    58    60    1
    55    54    17    1
    56    54    60    1
    57    26    44    1
    58    26   104    1
    59   108    34    1
    60    34   109    1
    61    84    11    1
    62    61    53    1
    63    61    55    1
    64    88    13    1
    65    17    96    1
    66    17    97    1
    67    11    85    1
    68    11    10    1
    69    20    39   ar
    70    20   101    1
    71    98    18    1
    72    13    89    1
    73    13    36    1
    74    99    18    1
    75    60    50    1
    76    60    51    2
    77    83    10    1
    78    18    55    1
    79    18    33    1
    80    78     7    1
    81    50   113    1
    82    10     9    2
    83    36    31   am
    84    71     3    1
    85    46    31    2
    86    70     3    1
    87    31    28    1
    88    77     6    1
    89     3    33    1
    90     3    69    1
    91    80     8    1
    92     9     8    1
    93     9    82    1
    94     7    79    1
    95     7     6    1
    96     7     8    1
    97    76     6    1
    98    33    28    1
    99    33     2    1
   100     6     5    1
   101     8    81    1
   102   112    45    1
   103    65     1    1
   104    28    45    1
   105    28   106    1
   106    68     2    1
   107     2    66    1
   108     2    67    1
   109     1    64    1
   110     1    63    1
   111     1     4    1
   112     5    74    1
   113     5     4    1
   114     5    75    1
   115    72     4    1
   116     4    73    1
