@<TRIPOS>MOLECULE
AZCVXMAPLHSIKY-HSJNEKGZSA-J	11070911	-4369.814702194681
 108 110 0 0 0
SMALL
MULLIKEN NwChem

@<TRIPOS>ATOM
      1 C           9.5757   -1.9341    2.9405 C.3     1  LIG1      -0.4500000000000002
      2 C           0.9358    1.6979   -2.0814 C.3     1  LIG1      -0.4800000000000004
      3 C           0.2280    2.8181    0.0592 C.3     1  LIG1      -0.4900000000000002
      4 C          10.5928   -2.1433    1.8158 C.3     1  LIG1        -0.25
      5 C          11.6203   -1.0108    1.7150 C.3     1  LIG1        -0.25
      6 C          12.6099   -1.2425    0.5687 C.3     1  LIG1        -0.25
      7 C          13.7781   -0.2469    0.5132 C.3     1  LIG1      -0.2699999999999996
      8 C          14.8615   -0.6439   -0.5058 C.3     1  LIG1      -0.2699999999999996
      9 C          14.4419   -0.4426   -1.9779 C.3     1  LIG1       -0.34999999999999964
     10 C           6.6604    0.3523   -0.0463 C.3     1  LIG1       -0.3600000000000003
     11 C           5.4054   -0.5201    0.1434 C.3     1  LIG1       -0.1200000000000001
     12 C           9.0614    1.7684   -0.2533 C.3     1  LIG1       -0.1299999999999999
     13 C          10.4767    2.3106   -0.4417 C.3     1  LIG1       -0.41000000000000014
     14 C          13.6404    1.7408   -3.1591 C.3     1  LIG1       -0.41999999999999993
     15 C          -5.5184    0.9675    1.6281 C.3     1  LIG1       -0.08000000000000007
     16 C           0.5960    0.3330    0.0052 C.3     1  LIG1       -0.07000000000000028
     17 C          -8.0329   -4.4108    2.3347 C.ar    1  LIG1       0.15000000000000036
     18 C         -10.2077   -1.9041   -0.4716 C.ar    1  LIG1       0.21999999999999975
     19 C          14.7635    0.9589   -2.4924 C.2     1  LIG1       0.45999999999999996
     20 C          -6.6151    0.9092    0.5966 C.3     1  LIG1       0.1200000000000001
     21 C           8.0208   -0.3830   -0.0762 C.2     1  LIG1           0.5
     22 C          12.7023    2.3079   -2.0613 C.2     1  LIG1       0.2599999999999998
     23 C          -9.9411   -3.6912    0.6304 C.ar    1  LIG1       0.1900000000000004
     24 C          -8.8898    0.4432    1.3038 C.3     1  LIG1       0.11000000000000032
     25 C          -7.9088    1.6490    1.1472 C.3     1  LIG1       0.07000000000000028
     26 C           2.5508    1.8887   -0.0999 C.3     1  LIG1       0.07000000000000028
     27 C         -10.0189   -4.9172    1.3010 C.ar    1  LIG1       0.4299999999999997
     28 C          -8.8113   -2.8916    0.9131 C.ar    1  LIG1       0.5199999999999996
     29 C           3.6058    0.8384   -0.6027 C.2     1  LIG1       0.5300000000000002
     30 C          -8.3604   -0.4428    0.1582 C.3     1  LIG1       0.21999999999999975
     31 C           1.0693    1.6778   -0.5497 C.3     1  LIG1       0.08000000000000007
     32 N         -11.0832   -5.7888    1.0811 N.pl3   1  LIG1      -0.7800000000000002
     33 N           9.1567    0.3392   -0.1539 N.am    1  LIG1      -0.5800000000000001
     34 N           4.2371    0.3008    0.4254 N.am    1  LIG1      -0.6299999999999999
     35 N          -9.0603   -5.2762    2.1672 N.ar    1  LIG1        -0.54
     36 N          -7.8274   -3.2263    1.7651 N.ar    1  LIG1        -0.54
     37 N         -10.8128   -3.0544   -0.2321 N.ar    1  LIG1      -0.5800000000000001
     38 N          -8.9889   -1.7589    0.1553 N.ar    1  LIG1      -0.5099999999999998
     39 O          15.8802    1.4345   -2.3722 O.2     1  LIG1         -0.5
     40 O           8.0290   -1.6370    0.0003 O.2     1  LIG1      -0.6799999999999997
     41 O          13.0606    3.2686   -1.3961 O.2     1  LIG1         -0.5
     42 O         -10.2452    0.7146    1.2872 O.3     1  LIG1      -0.7200000000000006
     43 O           2.6125    1.9821    1.3147 O.3     1  LIG1      -0.7200000000000006
     44 O           3.7735    0.6913   -1.8449 O.2     1  LIG1      -0.7100000000000009
     45 O          -9.2766    3.9484   -1.6650 O.3     1  LIG1      -0.7300000000000004
     46 O         -10.3082    1.6397   -1.0295 O.3     1  LIG1      -0.8000000000000007
     47 O          -7.9289    1.7107   -1.9911 O.2     1  LIG1      -0.7599999999999998
     48 O          -2.1500    1.3953    2.0665 O.3     1  LIG1      -0.6899999999999995
     49 O          -3.4532   -0.1932    3.6166 O.2     1  LIG1      -0.5800000000000001
     50 O          -2.9584   -0.9497   -0.9636 O.3     1  LIG1      -0.6699999999999999
     51 O          -0.8844   -2.3862   -0.3015 O.2     1  LIG1      -0.5700000000000003
     52 O          -4.2959    0.2718    1.1681 O.3     1  LIG1      -0.5899999999999999
     53 O          -0.8763    0.2361   -0.1896 O.3     1  LIG1      -0.5800000000000001
     54 O          -6.9632   -0.4855    0.3731 O.3     1  LIG1      -0.5600000000000005
     55 O          -8.3782    2.7017    0.3774 O.3     1  LIG1      -0.6699999999999999
     56 O          -2.2525   -1.0954    1.4833 O.3     1  LIG1      -0.6199999999999992
     57 P          -9.0215    2.5106   -1.2768 P.3     1  LIG1       1.0399999999999991
     58 P          -3.0831    0.0967    2.2205 P.3     1  LIG1       1.2400000000000002
     59 P          -1.6620   -1.1605   -0.0576 P.3     1  LIG1          1.25
     60 S          11.2332    1.3556   -1.8314 S.3     1  LIG1      0.11999999999999922
     61 H          10.0608   -1.7692    3.9160 H       1  LIG1          0.13
     62 H           8.9121   -2.8017    3.0321 H       1  LIG1          0.13
     63 H           8.9438   -1.0712    2.7120 H       1  LIG1          0.14
     64 H           1.6258    0.9780   -2.5261 H       1  LIG1       0.16000000000000003
     65 H           1.2020    2.6899   -2.4700 H       1  LIG1          0.14
     66 H          -0.0983    1.4820   -2.3757 H       1  LIG1       0.15000000000000002
     67 H          -0.8155    2.7708   -0.2768 H       1  LIG1       0.16000000000000003
     68 H           0.6304    3.7846   -0.2669 H       1  LIG1       0.15000000000000002
     69 H           0.2695    2.7944    1.1525 H       1  LIG1       0.16000000000000003
     70 H          11.1204   -3.1048    1.9554 H       1  LIG1       0.09999999999999998
     71 H          10.0214   -2.1890    0.8798 H       1  LIG1          0.14
     72 H          12.1696   -0.9041    2.6673 H       1  LIG1       0.10999999999999999
     73 H          11.0665   -0.0836    1.5282 H       1  LIG1          0.14
     74 H          13.0307   -2.2595    0.6553 H       1  LIG1          0.12
     75 H          12.0376   -1.2124   -0.3661 H       1  LIG1          0.14
     76 H          14.2465   -0.1887    1.5076 H       1  LIG1          0.13
     77 H          13.4044    0.7626    0.2915 H       1  LIG1          0.14
     78 H          15.7863   -0.0749   -0.3456 H       1  LIG1          0.14
     79 H          15.1065   -1.7033   -0.3495 H       1  LIG1          0.14
     80 H          15.0147   -1.1258   -2.6226 H       1  LIG1       0.18999999999999995
     81 H          13.3833   -0.6740   -2.1162 H       1  LIG1       0.17000000000000004
     82 H           6.6754    1.1015    0.7612 H       1  LIG1          0.13
     83 H           6.5280    0.9305   -0.9725 H       1  LIG1          0.14
     84 H           5.2679   -1.1372   -0.7566 H       1  LIG1       0.08999999999999997
     85 H           5.5828   -1.2069    0.9816 H       1  LIG1       0.09999999999999998
     86 H           8.4411    2.1415   -1.0940 H       1  LIG1       0.10999999999999999
     87 H           8.6563    2.2813    0.6476 H       1  LIG1          0.12
     88 H          11.0958    2.1204    0.4403 H       1  LIG1       0.18999999999999995
     89 H          10.5284    3.3753   -0.6929 H       1  LIG1       0.18000000000000005
     90 H          13.0791    1.0963   -3.8448 H       1  LIG1       0.20999999999999996
     91 H          14.0769    2.5880   -3.6956 H       1  LIG1       0.19999999999999996
     92 H          -5.2484    2.0121    1.8209 H       1  LIG1       0.19999999999999996
     93 H          -5.8310    0.4806    2.5559 H       1  LIG1       0.19999999999999996
     94 H           0.7990    0.2733    1.0764 H       1  LIG1       0.18000000000000005
     95 H           1.0614   -0.5089   -0.5117 H       1  LIG1       0.18999999999999995
     96 H          -7.2734   -4.7298    3.0484 H       1  LIG1       0.16000000000000003
     97 H         -10.5905   -1.0755   -1.0603 H       1  LIG1       0.19999999999999996
     98 H          -6.3490    1.3690   -0.3601 H       1  LIG1       0.17000000000000004
     99 H          -8.6384   -0.0937    2.2351 H       1  LIG1          0.14
    100 H          -7.6904    2.0633    2.1482 H       1  LIG1          0.14
    101 H           2.8565    2.8485   -0.5611 H       1  LIG1       0.10999999999999999
    102 H          -8.5752    0.0078   -0.8171 H       1  LIG1       0.19999999999999996
    103 H         -11.9018   -5.3103    0.7197 H       1  LIG1          0.37
    104 H         -11.2748   -6.3760    1.8838 H       1  LIG1          0.36
    105 H         -10.3894    1.1986    0.3603 H       1  LIG1       0.43999999999999995
    106 H           3.3484    1.3070    1.4760 H       1  LIG1          0.38
    107 H          -1.6647    1.3960    1.2135 H       1  LIG1           0.5
    108 H          -3.7235   -0.5610   -0.4830 H       1  LIG1            0.5
@<TRIPOS>BOND
     1    90    14    1
     2    91    14    1
     3    14    19    1
     4    14    22    1
     5    80     9    1
     6    64     2    1
     7    19    39    2
     8    19     9    1
     9    65     2    1
    10    66     2    1
    11    81     9    1
    12     2    31    1
    13    22    60    1
    14    22    41    2
    15    47    57    2
    16     9     8    1
    17    44    29    2
    18    60    13    1
    19    45    57    1
    20    57    46    1
    21    57    55    1
    22    86    12    1
    23    97    18    1
    24    83    10    1
    25    50   108    1
    26    50    59    1
    27   102    30    1
    28    84    11    1
    29    89    13    1
    30    29    26    1
    31    29    34   am
    32   101    26    1
    33    31    26    1
    34    31    16    1
    35    31     3    1
    36    95    16    1
    37     8    79    1
    38     8    78    1
    39     8     7    1
    40    18    37   ar
    41    18    38   ar
    42    13    12    1
    43    13    88    1
    44    75     6    1
    45    98    20    1
    46    51    59    2
    47    67     3    1
    48    68     3    1
    49    12    33    1
    50    12    87    1
    51    37    23   ar
    52    53    59    1
    53    53    16    1
    54    33    21   am
    55    26    43    1
    56    21    10    1
    57    21    40    2
    58    59    56    1
    59    10    11    1
    60    10    82    1
    61    16    94    1
    62     3    69    1
    63    11    34    1
    64    11    85    1
    65    38    30    1
    66    38    28   ar
    67    30    54    1
    68    30    24    1
    69    77     7    1
    70   105    42    1
    71    54    20    1
    72    55    25    1
    73     7     6    1
    74     7    76    1
    75     6    74    1
    76     6     5    1
    77    20    25    1
    78    20    15    1
    79    23    28   ar
    80    23    27   ar
    81   103    32    1
    82    71     4    1
    83    28    36   ar
    84    32    27    1
    85    32   104    1
    86    25    24    1
    87    25   100    1
    88    52    15    1
    89    52    58    1
    90   107    48    1
    91    42    24    1
    92    27    35   ar
    93    24    99    1
    94    43   106    1
    95    56    58    1
    96    73     5    1
    97    15    92    1
    98    15    93    1
    99     5     4    1
   100     5    72    1
   101    36    17   ar
   102     4    70    1
   103     4     1    1
   104    48    58    1
   105    35    17   ar
   106    58    49    2
   107    17    96    1
   108    63     1    1
   109     1    62    1
   110     1    61    1
