@<TRIPOS>MOLECULE
BAMBWCGEVIAQBF-CITAKDKDSA-J	11152745	-4135.330284050528
 92 94 0 0 0
SMALL
MULLIKEN NwChem

@<TRIPOS>ATOM
      1 C          -3.0007   -0.8358   -2.7040 C.3     1  LIG1      -0.46999999999999975
      2 C          -3.9538   -1.5194   -0.4784 C.3     1  LIG1      -0.4800000000000004
      3 C         -13.0445    2.1858   -0.2103 C.3     1  LIG1      -0.2699999999999996
      4 C         -11.5786    1.7562   -0.1367 C.3     1  LIG1       -0.34999999999999964
      5 C          -7.1311    1.7868    0.9306 C.3     1  LIG1       -0.3600000000000003
      6 C          -6.6200    0.4486    0.3064 C.3     1  LIG1       -0.15000000000000036
      7 C          -9.4145    0.4880    2.4280 C.3     1  LIG1       -0.15000000000000036
      8 C         -13.9701    1.3001    0.6418 C.3     1  LIG1       -0.04999999999999982
      9 C         -10.0032   -0.8992    2.0989 C.3     1  LIG1       -0.3600000000000003
     10 C           4.7409    0.0637   -0.6701 C.3     1  LIG1       -0.08000000000000007
     11 C          -1.8486   -0.2505   -0.5419 C.3     1  LIG1       -0.04999999999999982
     12 C          10.4548    2.0769   -2.3712 C.ar    1  LIG1       0.15000000000000036
     13 C          10.0595    0.5940    1.6930 C.ar    1  LIG1       0.23000000000000043
     14 C           5.9393   -0.6851   -0.0892 C.3     1  LIG1       0.09999999999999964
     15 C          -8.5844    2.1671    0.6794 C.2     1  LIG1       0.5899999999999999
     16 C         -10.9285    2.0260    1.2025 C.2     1  LIG1       0.5899999999999999
     17 C          11.0170    1.7559    0.2011 C.ar    1  LIG1       0.1900000000000004
     18 C           7.4276   -0.6556    1.8661 C.3     1  LIG1       0.07000000000000028
     19 C           5.9355   -0.9756    1.4465 C.3     1  LIG1       0.08999999999999986
     20 C          -4.0551    0.9284   -1.1806 C.3     1  LIG1       0.05999999999999961
     21 C          11.8465    2.5449   -0.6062 C.ar    1  LIG1       0.4400000000000004
     22 C           9.8965    1.1732   -0.4240 C.ar    1  LIG1       0.5300000000000002
     23 C          -5.5116    0.7801   -1.7986 C.2     1  LIG1       0.46999999999999975
     24 C           8.0993   -0.4389    0.4927 C.3     1  LIG1       0.2999999999999998
     25 C          -3.2174   -0.4024   -1.2461 C.3     1  LIG1       0.07000000000000028
     26 N          12.9563    3.1921   -0.0861 N.pl3   1  LIG1      -0.7800000000000002
     27 N          -9.5893    1.4819    1.3551 N.am    1  LIG1      -0.4800000000000004
     28 N          -6.6081    0.4873   -1.1296 N.am    1  LIG1      -0.5999999999999996
     29 N          11.5637    2.6980   -1.9074 N.ar    1  LIG1        -0.54
     30 N           9.5816    1.3114   -1.7209 N.ar    1  LIG1      -0.5300000000000002
     31 N          11.1131    1.3730    1.5262 N.ar    1  LIG1      -0.5800000000000001
     32 N           9.2736    0.4482    0.5699 N.ar    1  LIG1      -0.5499999999999998
     33 O         -13.9482   -0.0554    0.2338 O.3     1  LIG1      -0.6999999999999993
     34 O          -8.8797    3.1131   -0.0575 O.2     1  LIG1      -0.5899999999999999
     35 O         -11.4458    2.6426    2.1078 O.2     1  LIG1      -0.4900000000000002
     36 O           8.0928   -1.5812    2.6772 O.3     1  LIG1      -0.6999999999999993
     37 O          -3.4246    1.9566   -1.9289 O.3     1  LIG1      -0.7100000000000009
     38 O          -5.4872    0.9814   -3.0568 O.2     1  LIG1      -0.7100000000000009
     39 O           7.5296   -3.4631    0.9431 O.2     1  LIG1      -0.7400000000000002
     40 O           5.2499   -3.8017   -0.1345 O.3     1  LIG1        -0.75
     41 O           5.6587   -4.7475    2.2720 O.3     1  LIG1      -0.6600000000000001
     42 O           2.5853   -2.8423    0.0545 O.2     1  LIG1      -0.6400000000000006
     43 O           2.6141   -0.4596    1.2422 O.3     1  LIG1      -0.7300000000000004
     44 O           0.5627    1.0609    0.6694 O.3     1  LIG1      -0.7300000000000004
     45 O           1.3848    1.5562   -1.7856 O.2     1  LIG1      -0.6099999999999994
     46 O           3.7267   -0.8546   -1.0493 O.3     1  LIG1      -0.5700000000000003
     47 O          -0.8960    0.4910   -1.3358 O.3     1  LIG1      -0.5299999999999994
     48 O           7.1123    0.1542   -0.3064 O.3     1  LIG1      -0.5399999999999991
     49 O           5.4690   -2.2338    1.8647 O.3     1  LIG1      -0.6199999999999992
     50 O           1.1860   -0.8868   -0.8397 O.3     1  LIG1      -0.6500000000000004
     51 P           6.0513   -3.6952    1.2843 P.3     1  LIG1       1.0999999999999996
     52 P           2.5699   -1.3453    0.0100 P.3     1  LIG1       1.2300000000000004
     53 P           0.6318    0.6513   -0.8841 P.3     1  LIG1       1.2100000000000009
     54 S         -11.8238   -1.0885    2.3539 S.3     1  LIG1      -0.7699999999999996
     55 H          -3.9623   -0.9781   -3.2038 H       1  LIG1       0.15000000000000002
     56 H          -2.4498   -0.0608   -3.2400 H       1  LIG1       0.15000000000000002
     57 H          -2.4170   -1.7661   -2.7430 H       1  LIG1          0.14
     58 H          -4.0044   -1.3019    0.5969 H       1  LIG1       0.15000000000000002
     59 H          -3.4369   -2.4806   -0.5989 H       1  LIG1       0.15000000000000002
     60 H          -4.9786   -1.6183   -0.8466 H       1  LIG1       0.15000000000000002
     61 H         -13.3735    2.1307   -1.2578 H       1  LIG1          0.14
     62 H         -13.1422    3.2317    0.1156 H       1  LIG1          0.14
     63 H         -10.9603    2.2664   -0.8843 H       1  LIG1       0.18999999999999995
     64 H         -11.4886    0.6806   -0.3280 H       1  LIG1       0.18000000000000005
     65 H          -6.5436    2.6017    0.4993 H       1  LIG1       0.16000000000000003
     66 H          -6.9459    1.7780    2.0132 H       1  LIG1       0.17000000000000004
     67 H          -5.6504    0.2512    0.8007 H       1  LIG1          0.13
     68 H          -7.2876   -0.3623    0.6415 H       1  LIG1          0.13
     69 H          -8.3421    0.3930    2.6146 H       1  LIG1       0.18000000000000005
     70 H          -9.8859    0.8804    3.3379 H       1  LIG1       0.16000000000000003
     71 H         -15.0077    1.6678    0.5408 H       1  LIG1          0.13
     72 H         -13.6797    1.3969    1.6972 H       1  LIG1          0.13
     73 H          -9.7111   -1.1459    1.0672 H       1  LIG1       0.16000000000000003
     74 H          -9.4838   -1.6227    2.7490 H       1  LIG1       0.15000000000000002
     75 H           5.0656    0.5711   -1.5876 H       1  LIG1       0.18000000000000005
     76 H           4.3534    0.8138    0.0304 H       1  LIG1       0.18000000000000005
     77 H          -1.4246   -1.2460   -0.3576 H       1  LIG1       0.17000000000000004
     78 H          -1.9687    0.2557    0.4236 H       1  LIG1       0.17000000000000004
     79 H          10.2588    2.2224   -3.4311 H       1  LIG1       0.16000000000000003
     80 H           9.8068    0.0476    2.5920 H       1  LIG1       0.20999999999999996
     81 H           6.0601   -1.6259   -0.6386 H       1  LIG1       0.18000000000000005
     82 H           7.4294    0.3129    2.3883 H       1  LIG1       0.17000000000000004
     83 H           5.2615   -0.2646    1.9310 H       1  LIG1       0.17000000000000004
     84 H          -4.0835    1.2478   -0.1284 H       1  LIG1          0.12
     85 H           8.4169   -1.4122    0.0909 H       1  LIG1       0.18000000000000005
     86 H          13.3027    2.7799    0.7739 H       1  LIG1          0.37
     87 H          13.6651    3.3967   -0.7778 H       1  LIG1          0.36
     88 H         -13.2077   -0.4775    0.7600 H       1  LIG1       0.41000000000000003
     89 H           8.0044   -2.4472    2.1656 H       1  LIG1       0.43000000000000005
     90 H          -3.9605    1.8880   -2.7607 H       1  LIG1           0.4
     91 H           4.2931   -3.5556   -0.0225 H       1  LIG1          0.47
     92 H           1.3307    0.5808    1.1207 H       1  LIG1           0.48
@<TRIPOS>BOND
     1    79    12    1
     2    56     1    1
     3    55     1    1
     4    38    23    2
     5    90    37    1
     6    57     1    1
     7     1    25    1
     8    12    29   ar
     9    12    30   ar
    10    37    20    1
    11    29    21   ar
    12    23    20    1
    13    23    28   am
    14    45    53    2
    15    30    22   ar
    16    75    10    1
    17    47    53    1
    18    47    11    1
    19    61     3    1
    20    25    20    1
    21    25    11    1
    22    25     2    1
    23    20    84    1
    24    28     6    1
    25    46    10    1
    26    46    52    1
    27    63     4    1
    28    53    50    1
    29    53    44    1
    30    60     2    1
    31    50    52    1
    32    87    26    1
    33    10    14    1
    34    10    76    1
    35    81    14    1
    36    21    26    1
    37    21    17   ar
    38    59     2    1
    39    11    77    1
    40    11    78    1
    41     2    58    1
    42    22    17   ar
    43    22    32   ar
    44    64     4    1
    45    48    14    1
    46    48    24    1
    47     3     4    1
    48     3    62    1
    49     3     8    1
    50     4    16    1
    51    40    91    1
    52    40    51    1
    53    14    19    1
    54    26    86    1
    55    34    15    2
    56    52    42    2
    57    52    43    1
    58    85    24    1
    59    17    31   ar
    60    33     8    1
    61    33    88    1
    62     6    68    1
    63     6    67    1
    64     6     5    1
    65    24    32    1
    66    24    18    1
    67    65     5    1
    68    71     8    1
    69    32    13   ar
    70     8    72    1
    71    44    92    1
    72    15     5    1
    73    15    27   am
    74     5    66    1
    75    39    51    2
    76    73     9    1
    77    16    27   am
    78    16    35    2
    79    51    49    1
    80    51    41    1
    81    27     7    1
    82    19    49    1
    83    19    18    1
    84    19    83    1
    85    31    13   ar
    86    13    80    1
    87    18    82    1
    88    18    36    1
    89     9    54    1
    90     9     7    1
    91     9    74    1
    92    89    36    1
    93     7    69    1
    94     7    70    1
