@<TRIPOS>MOLECULE
BAWFJGJZGIEFAR-NNYOXOHSSA-M	11152743	-2934.849462724688
 70 74 0 0 0
SMALL
MULLIKEN NwChem

@<TRIPOS>ATOM
      1 C          -6.5539   -0.6072    1.9973 C.2     1  LIG1      -0.1900000000000004
      2 C          -7.4822    0.4426    1.9617 C.3     1  LIG1       -0.11000000000000032
      3 C          -5.9373   -1.0359    0.8305 C.2     1  LIG1      0.08999999999999986
      4 C          -7.3669    0.3867   -0.4009 C.3     1  LIG1       0.040000000000000036
      5 C          -2.1343   -0.5776   -1.1014 C.3     1  LIG1       -0.08999999999999986
      6 C           1.9080   -1.0848   -0.1773 C.3     1  LIG1       -0.08999999999999986
      7 C           9.4653   -0.1554   -1.1968 C.ar    1  LIG1       0.15000000000000036
      8 C           5.7049    2.0184   -0.9881 C.ar    1  LIG1       0.21999999999999975
      9 C          -7.8652    0.9977    0.7349 C.3     1  LIG1       0.019999999999999574
     10 C          -3.2725   -0.6846   -2.1153 C.3     1  LIG1       0.1200000000000001
     11 C           3.3033   -1.1459    0.4349 C.3     1  LIG1       0.13999999999999968
     12 C           7.7287    1.8218   -1.5946 C.ar    1  LIG1       0.17999999999999972
     13 C          -3.7360    0.6964   -2.6023 C.3     1  LIG1       0.05999999999999961
     14 C           3.4778   -0.4470    1.8121 C.3     1  LIG1       0.040000000000000036
     15 C          -4.9141    0.9936   -1.6632 C.3     1  LIG1       0.08999999999999986
     16 C           4.7394    0.4409    1.6158 C.3     1  LIG1       0.11000000000000032
     17 C           9.0281    1.9070   -2.1287 C.ar    1  LIG1       0.46999999999999975
     18 C          -8.4502    2.3963    0.4633 C.2     1  LIG1       0.46999999999999975
     19 C           7.4411    0.6643   -0.8599 C.ar    1  LIG1       0.5300000000000002
     20 C          -5.5128   -0.4456   -1.5685 C.3     1  LIG1       0.2699999999999996
     21 C           5.3399   -0.1230    0.3071 C.3     1  LIG1       0.2599999999999998
     22 N           9.4534    3.0010   -2.8275 N.pl3   1  LIG1      -0.7800000000000002
     23 N          -9.3520    2.9323    1.2325 N.am    1  LIG1      -0.7800000000000002
     24 N           9.8887    0.8952   -1.9236 N.ar    1  LIG1      -0.5499999999999998
     25 N           8.2748   -0.3576   -0.6272 N.ar    1  LIG1        -0.54
     26 N           6.6265    2.6578   -1.6699 N.ar    1  LIG1      -0.5700000000000003
     27 N          -6.3607   -0.5097   -0.3465 N.pl3   1  LIG1      -0.3899999999999997
     28 N           6.1285    0.8131   -0.4606 N.ar    1  LIG1      -0.5199999999999996
     29 O          -4.2067    0.5975   -3.9361 O.3     1  LIG1      -0.6799999999999997
     30 O           3.7468   -1.3608    2.8523 O.3     1  LIG1      -0.7200000000000006
     31 O          -5.7598    1.9663   -2.2023 O.3     1  LIG1      -0.6999999999999993
     32 O           5.6191    0.4038    2.7052 O.3     1  LIG1      -0.6799999999999997
     33 O          -7.8712    2.9229   -0.5533 O.2     1  LIG1      -0.6799999999999997
     34 O          -3.5245   -2.9738    1.3138 O.2     1  LIG1      -0.5999999999999996
     35 O          -2.6796   -0.5705    1.7272 O.3     1  LIG1      -0.7300000000000004
     36 O          -0.1342   -0.1108    1.8083 O.2     1  LIG1      -0.7400000000000002
     37 O           1.1503   -2.0346    3.0760 O.3     1  LIG1      -0.6500000000000004
     38 O          -1.9514   -1.8090   -0.4151 O.3     1  LIG1      -0.5600000000000005
     39 O           1.0250   -1.9891    0.4863 O.3     1  LIG1      -0.5600000000000005
     40 O          -4.4316   -1.3072   -1.4832 O.3     1  LIG1      -0.5299999999999994
     41 O           4.2131   -0.4972   -0.4708 O.3     1  LIG1      -0.5399999999999991
     42 O          -1.0239   -2.5278    1.8157 O.3     1  LIG1      -0.6199999999999992
     43 P          -2.3975   -2.0309    1.1352 P.3     1  LIG1       1.2799999999999994
     44 P           0.3389   -1.5518    1.9132 P.3     1  LIG1       1.2400000000000002
     45 H          -6.2195   -1.0372    2.9349 H       1  LIG1       0.20999999999999996
     46 H          -7.8556    0.8786    2.8851 H       1  LIG1       0.20999999999999996
     47 H          -5.1156   -1.7470    0.8056 H       1  LIG1          0.27
     48 H          -7.6322    0.7556   -1.3807 H       1  LIG1          0.24
     49 H          -1.2018   -0.3518   -1.6312 H       1  LIG1       0.19999999999999996
     50 H          -2.3278    0.2332   -0.3943 H       1  LIG1       0.18999999999999995
     51 H           1.5128   -0.0616   -0.1447 H       1  LIG1       0.18000000000000005
     52 H           1.9614   -1.4102   -1.2212 H       1  LIG1       0.18000000000000005
     53 H          10.1973   -0.9493   -1.0621 H       1  LIG1       0.17000000000000004
     54 H           4.6876    2.3550   -0.8442 H       1  LIG1       0.21999999999999997
     55 H          -2.9881   -1.3219   -2.9571 H       1  LIG1       0.18999999999999995
     56 H           3.5892   -2.1995    0.5638 H       1  LIG1       0.16000000000000003
     57 H          -2.9389    1.4501   -2.5134 H       1  LIG1       0.18000000000000005
     58 H           2.6040    0.1705    2.0536 H       1  LIG1       0.17000000000000004
     59 H          -4.5447    1.2566   -0.6605 H       1  LIG1       0.18999999999999995
     60 H           4.4376    1.4807    1.4323 H       1  LIG1       0.17000000000000004
     61 H          -6.1597   -0.6518   -2.4305 H       1  LIG1       0.20999999999999996
     62 H           5.9929   -0.9756    0.5346 H       1  LIG1       0.18000000000000005
     63 H           8.7441    3.6253   -3.1847 H       1  LIG1          0.38
     64 H          10.2905    2.8813   -3.3803 H       1  LIG1          0.37
     65 H          -9.6498    2.2447    1.9318 H       1  LIG1       0.29000000000000004
     66 H          -4.8423    1.3294   -4.0408 H       1  LIG1       0.43999999999999995
     67 H           2.8613   -1.7125    3.1322 H       1  LIG1       0.45999999999999996
     68 H          -6.3862    2.3585   -1.5259 H       1  LIG1       0.44999999999999996
     69 H           5.2867   -0.3365    3.2552 H       1  LIG1       0.43999999999999995
     70 H          -1.7716   -0.1356    1.8756 H       1  LIG1           0.48
@<TRIPOS>BOND
     1    66    29    1
     2    29    13    1
     3    64    22    1
     4    63    22    1
     5    55    10    1
     6    22    17    1
     7    13    57    1
     8    13    10    1
     9    13    15    1
    10    61    20    1
    11    31    15    1
    12    31    68    1
    13    17    24   ar
    14    17    12   ar
    15    10    40    1
    16    10     5    1
    17    24     7   ar
    18    26    12   ar
    19    26     8   ar
    20    15    20    1
    21    15    59    1
    22    49     5    1
    23    12    19   ar
    24    20    40    1
    25    20    27    1
    26    48     4    1
    27    52     6    1
    28     7    53    1
    29     7    25   ar
    30     5    38    1
    31     5    50    1
    32     8    54    1
    33     8    28   ar
    34    19    25   ar
    35    19    28   ar
    36    33    18    2
    37    41    21    1
    38    41    11    1
    39    28    21    1
    40    38    43    1
    41     4    27    1
    42     4     9    1
    43    27     3    1
    44     6    51    1
    45     6    11    1
    46     6    39    1
    47    21    62    1
    48    21    16    1
    49    11    56    1
    50    11    14    1
    51    18     9    1
    52    18    23   am
    53    39    44    1
    54     9     2    1
    55    47     3    1
    56     3     1    2
    57    43    34    2
    58    43    35    1
    59    43    42    1
    60    23    65    1
    61    60    16    1
    62    16    14    1
    63    16    32    1
    64    35    70    1
    65    36    44    2
    66    14    58    1
    67    14    30    1
    68    42    44    1
    69    44    37    1
    70     2     1    1
    71     2    46    1
    72     1    45    1
    73    32    69    1
    74    30    67    1
