@<TRIPOS>MOLECULE
BCDGQXUMWHRQCB-UHFFFAOYSA-O	6044329	-248.88680684834924
 13 12 0 0 0
SMALL
MULLIKEN NwChem

@<TRIPOS>ATOM
      1 C           1.3383    0.2866   -1.4113 C.3     1  LIG1            -0.54
      2 C          -0.4807    0.8691    0.3607 C.3     1  LIG1      -0.2400000000000002
      3 C           0.2408   -0.1882   -0.5155 C.2     1  LIG1       0.46999999999999975
      4 N          -1.5198    0.1108    1.1496 N.4     1  LIG1       -0.7300000000000004
      5 O          -0.1386   -1.3400   -0.4121 O.2     1  LIG1      -0.47000000000000064
      6 H           0.9619    1.0523   -2.1015 H       1  LIG1       0.21999999999999997
      7 H           1.7432   -0.5541   -1.9765 H       1  LIG1       0.19999999999999996
      8 H           2.1357    0.7522   -0.8180 H       1  LIG1       0.21999999999999997
      9 H           0.2142    1.3628    1.0439 H       1  LIG1          0.26
     10 H          -0.9668    1.6307   -0.2535 H       1  LIG1          0.26
     11 H          -1.3961   -0.8860    0.8268 H       1  LIG1      0.43999999999999995
     12 H          -1.3750    0.1555    2.1634 H       1  LIG1      0.44999999999999996
     13 H          -2.4802    0.4105    0.9529 H       1  LIG1      0.44999999999999996
@<TRIPOS>BOND
     1     6     1    1
     2     7     1    1
     3     1     8    1
     4     1     3    1
     5     3     5    2
     6     3     2    1
     7    10     2    1
     8     2     9    1
     9     2     4    1
    10    11     4    1
    11    13     4    1
    12     4    12    1
