@<TRIPOS>MOLECULE
BCPSFKBPHHBDAI-LURJTMIESA-M	6044330	-628.4035585198737
 22 21 0 0 0
SMALL
MULLIKEN NwChem

@<TRIPOS>ATOM
      1 C           0.4930   -0.5113    1.9876 C.3     1  LIG1       -0.5599999999999996
      2 C           1.6596   -0.0075   -1.3375 C.3     1  LIG1       -0.3600000000000003
      3 C           0.3334    0.7259   -1.6218 C.3     1  LIG1      -0.2699999999999996
      4 C           1.6050   -1.5072   -1.4721 C.2     1  LIG1       0.2599999999999998
      5 C           0.5825    1.0340    1.7653 C.2     1  LIG1       0.4800000000000004
      6 CA         -0.5844    0.9799   -0.3844 C.3     1  LIG1       -0.04999999999999982
      7 C          -1.4863   -0.2288   -0.1002 C.2     1  LIG1       0.5800000000000001
      8 N           0.0843    1.6553    0.6900 N.am    1  LIG1      -0.6100000000000003
      9 O           2.4960   -2.1786   -1.9665 O.2     1  LIG1      -0.47000000000000064
     10 O           1.1458    1.6421    2.7028 O.2     1  LIG1      -0.6999999999999993
     11 O          -1.5416   -1.2855   -0.7112 O.2     1  LIG1      -0.5299999999999994
     12 OXT        -2.3558    0.0111    0.9204 O.3     1  LIG1      -0.5899999999999999
     13 H           0.4027   -1.1315    1.0887 H       1  LIG1          0.14
     14 H          -0.3696   -0.7352    2.6278 H       1  LIG1       0.16000000000000003
     15 H           1.3950   -0.8144    2.5275 H       1  LIG1          0.14
     16 H           2.4683    0.3423   -1.9905 H       1  LIG1       0.16000000000000003
     17 H           1.9526    0.2504   -0.3074 H       1  LIG1       0.18999999999999995
     18 H          -0.2305    0.2222   -2.4192 H       1  LIG1       0.15000000000000002
     19 H           0.5960    1.7239   -1.9893 H       1  LIG1       0.15000000000000002
     20 H           0.6811   -1.9881   -1.0946 H       1  LIG1          0.14
     21 HA         -1.3481    1.6899   -0.7682 H       1  LIG1       0.16000000000000003
     22 HXT        -2.8743   -0.8112    0.9960 H       1  LIG1       0.43999999999999995
@<TRIPOS>BOND
     1    18     3    1
     2    16     2    1
     3    19     3    1
     4     9     4    2
     5     3     2    1
     6     3     6    1
     7     4     2    1
     8     4    20    1
     9     2    17    1
    10    21     6    1
    11    11     7    2
    12     6     7    1
    13     6     8    1
    14     7    12    1
    15     8     5   am
    16    12    22    1
    17    13     1    1
    18     5     1    1
    19     5    10    2
    20     1    15    1
    21     1    14    1
