@<TRIPOS>MOLECULE
BDAGIHXWWSANSR-UHFFFAOYSA-M	6044331	-189.2910463770237
 4 3 0 0 0
SMALL
MULLIKEN NwChem

@<TRIPOS>ATOM
      1 C           0.2979    0.0050    0.0050 C.2     1  LIG1       0.2999999999999998
      2 O          -0.2185    0.8109    0.8157 O.co2   1  LIG1      -0.6400000000000006
      3 O          -0.2241   -0.7992   -0.8039 O.co2   1  LIG1      -0.6400000000000006
      4 H           1.4513    0.0030    0.0030 H       1  LIG1       -0.030000000000000027
@<TRIPOS>BOND
     1     3     1   ar
     2     4     1    1
     3     1     2   ar
