@<TRIPOS>MOLECULE
BDERNNFJNOPAEC-UHFFFAOYSA-N	6044332	-194.27435822614092
 12 11 0 0 0
SMALL
MULLIKEN NwChem

@<TRIPOS>ATOM
      1 C           0.2222    0.4491    1.5444 C.3     1  LIG1      -0.46999999999999975
      2 C          -0.2669    0.9080    0.1668 C.3     1  LIG1      -0.2599999999999998
      3 C           0.2123    0.0037   -0.9725 C.3     1  LIG1       -0.040000000000000036
      4 O          -0.2802   -1.3301   -0.8743 O.3     1  LIG1      -0.6699999999999999
      5 H          -0.1656   -0.5473    1.7898 H       1  LIG1       0.15000000000000002
      6 H          -0.1133    1.1288    2.3347 H       1  LIG1       0.15000000000000002
      7 H           1.3186    0.4060    1.5841 H       1  LIG1       0.15000000000000002
      8 H          -1.3638    0.9340    0.1528 H       1  LIG1          0.14
      9 H           0.0822    1.9311   -0.0304 H       1  LIG1          0.14
     10 H          -0.1580    0.3805   -1.9319 H       1  LIG1       0.15000000000000002
     11 H           1.3154    0.0161   -1.0199 H       1  LIG1          0.13
     12 H           0.1490   -1.7472   -0.1123 H       1  LIG1       0.43000000000000005
@<TRIPOS>BOND
     1    10     3    1
     2    11     3    1
     3     3     4    1
     4     3     2    1
     5     4    12    1
     6     9     2    1
     7     8     2    1
     8     2     1    1
     9     1     7    1
    10     1     5    1
    11     1     6    1
