@<TRIPOS>MOLECULE
BDHQMRXFDYJGII-XPNRYQHYSA-N	6044333	-1287.1471113475864
 84 88 0 0 0
SMALL
MULLIKEN NwChem

@<TRIPOS>ATOM
      1 C           1.1589    2.5076    7.1643 C.3     1  LIG1      -0.46999999999999975
      2 C           0.7928    0.6068    5.5449 C.3     1  LIG1      -0.45999999999999996
      3 C           3.2289    2.5684    4.1301 C.2     1  LIG1      -0.4400000000000004
      4 C          -1.8705    2.9352    3.7227 C.3     1  LIG1      -0.4800000000000004
      5 C          -0.6946   -3.0957   -6.0043 C.3     1  LIG1      -0.4800000000000004
      6 C          -2.0327   -4.1313   -4.1637 C.3     1  LIG1      -0.4900000000000002
      7 C           1.2419    0.9899    1.0798 C.3     1  LIG1         -0.5
      8 C           0.7330    1.9317   -1.5417 C.3     1  LIG1      -0.4900000000000002
      9 C           1.0963    3.8074    4.3400 C.3     1  LIG1      -0.3600000000000003
     10 C           0.4370    3.6176    2.9532 C.3     1  LIG1      -0.2699999999999996
     11 C          -1.7391   -1.1391   -3.6800 C.3     1  LIG1      -0.28000000000000025
     12 C          -1.3240    0.2089   -3.0730 C.3     1  LIG1      -0.2999999999999998
     13 C          -1.3100    3.2379    0.4547 C.3     1  LIG1      -0.29000000000000004
     14 C           0.5089   -4.7907   -2.7105 C.3     1  LIG1      -0.2999999999999998
     15 C          -1.5965    2.4452   -0.8234 C.3     1  LIG1      -0.29000000000000004
     16 C           0.0044   -3.7212   -1.7139 C.3     1  LIG1      -0.3099999999999996
     17 C          -0.8451   -0.3650    1.0843 C.3     1  LIG1      -0.2999999999999998
     18 C          -0.2992   -1.5388    0.2516 C.3     1  LIG1      -0.3099999999999996
     19 C           1.2096   -1.3947   -1.8778 C.3     1  LIG1      -0.3799999999999999
     20 C           1.7255    1.7703    5.9374 C.3     1  LIG1      -0.13999999999999968
     21 C           2.0575    2.6990    4.7651 C.2     1  LIG1      0.21999999999999975
     22 C          -0.6400    2.5185    2.8980 C.3     1  LIG1      -0.08999999999999986
     23 C          -1.0866    2.1141    1.4740 C.3     1  LIG1      -0.09999999999999964
     24 C          -0.5256   -2.0798   -3.6924 C.3     1  LIG1      -0.1200000000000001
     25 C          -1.0143    0.0507   -1.5752 C.3     1  LIG1      -0.1299999999999999
     26 C           0.5020   -4.3140   -4.1697 C.3     1  LIG1       0.1299999999999999
     27 C          -0.7126   -3.4054   -4.4941 C.3     1  LIG1      0.09999999999999964
     28 C          -0.2537    1.0152    0.7118 C.3     1  LIG1      0.08999999999999986
     29 C          -0.5097    1.3333   -0.8451 C.3     1  LIG1      0.09999999999999964
     30 C           0.0383   -2.2924   -2.2554 C.3     1  LIG1      0.040000000000000036
     31 C          -0.1465   -1.1676   -1.2356 C.3     1  LIG1      0.08999999999999986
     32 O           1.7386   -3.6584   -4.4922 O.3     1  LIG1      -0.6899999999999995
     33 H           0.1464    2.8827    6.9772 H       1  LIG1       0.16000000000000003
     34 H           1.7882    3.3561    7.4535 H       1  LIG1       0.15000000000000002
     35 H           1.0949    1.8237    8.0199 H       1  LIG1       0.15000000000000002
     36 H          -0.2137    0.9592    5.2903 H       1  LIG1       0.16000000000000003
     37 H           1.1965    0.0627    4.6824 H       1  LIG1       0.15000000000000002
     38 H           0.6894   -0.0969    6.3818 H       1  LIG1       0.15000000000000002
     39 H           3.5034    3.2107    3.2942 H       1  LIG1          0.14
     40 H           3.9576    1.8097    4.4078 H       1  LIG1          0.14
     41 H          -2.3606    3.8047    3.2659 H       1  LIG1          0.14
     42 H          -2.6050    2.1243    3.7766 H       1  LIG1          0.14
     43 H          -1.6089    3.2070    4.7510 H       1  LIG1       0.15000000000000002
     44 H          -0.8776   -4.0075   -6.5858 H       1  LIG1          0.14
     45 H          -1.4720   -2.3718   -6.2736 H       1  LIG1       0.15000000000000002
     46 H           0.2785   -2.6965   -6.3028 H       1  LIG1       0.15000000000000002
     47 H          -2.1972   -4.2603   -3.0911 H       1  LIG1       0.16000000000000003
     48 H          -2.8865   -3.5697   -4.5577 H       1  LIG1       0.15000000000000002
     49 H          -2.0518   -5.1266   -4.6255 H       1  LIG1          0.14
     50 H           1.3813    0.7767    2.1460 H       1  LIG1       0.15000000000000002
     51 H           1.7656    0.2098    0.5192 H       1  LIG1       0.15000000000000002
     52 H           1.7509    1.9323    0.8735 H       1  LIG1       0.15000000000000002
     53 H           1.0350    2.8717   -1.0682 H       1  LIG1          0.14
     54 H           1.5957    1.2638   -1.5265 H       1  LIG1       0.15000000000000002
     55 H           0.5075    2.1652   -2.5869 H       1  LIG1          0.14
     56 H           0.3250    3.9571    5.0988 H       1  LIG1       0.15000000000000002
     57 H           1.6621    4.7487    4.3122 H       1  LIG1       0.15000000000000002
     58 H          -0.0183    4.5706    2.6510 H       1  LIG1          0.13
     59 H           1.2290    3.4133    2.2274 H       1  LIG1       0.15000000000000002
     60 H          -2.5646   -1.5748   -3.0983 H       1  LIG1          0.13
     61 H          -2.1115   -0.9909   -4.6999 H       1  LIG1          0.13
     62 H          -0.4575    0.5851   -3.6340 H       1  LIG1          0.14
     63 H          -2.1198    0.9549   -3.1938 H       1  LIG1          0.13
     64 H          -0.4107    3.8523    0.3375 H       1  LIG1          0.14
     65 H          -2.1257    3.9125    0.7375 H       1  LIG1          0.13
     66 H           1.5355   -5.0945   -2.4820 H       1  LIG1          0.14
     67 H          -0.1098   -5.6913   -2.6154 H       1  LIG1       0.15000000000000002
     68 H          -1.5831    3.0540   -1.7343 H       1  LIG1          0.13
     69 H          -2.5982    1.9987   -0.7474 H       1  LIG1          0.13
     70 H           0.5853   -3.7810   -0.7893 H       1  LIG1       0.15000000000000002
     71 H          -1.0290   -3.9535   -1.4242 H       1  LIG1       0.15000000000000002
     72 H          -0.6734   -0.5580    2.1518 H       1  LIG1          0.13
     73 H          -1.9342   -0.3245    0.9670 H       1  LIG1          0.14
     74 H           0.6576   -1.8793    0.6627 H       1  LIG1          0.14
     75 H          -0.9923   -2.3821    0.3642 H       1  LIG1          0.14
     76 H           1.5649   -0.6947   -2.6316 H       1  LIG1       0.16000000000000003
     77 H           1.9992   -1.7913   -1.2392 H       1  LIG1       0.15000000000000002
     78 H           2.6775    1.3180    6.2427 H       1  LIG1          0.13
     79 H          -0.2228    1.6202    3.3610 H       1  LIG1          0.14
     80 H          -2.0807    1.6606    1.6098 H       1  LIG1          0.12
     81 H           0.2470   -1.5381   -4.2531 H       1  LIG1          0.13
     82 H          -1.9957   -0.1764   -1.1311 H       1  LIG1          0.12
     83 H           0.4779   -5.1839   -4.8357 H       1  LIG1          0.13
     84 H           1.9029   -2.9961   -3.7999 H       1  LIG1       0.42000000000000004
@<TRIPOS>BOND
     1    44     5    1
     2    46     5    1
     3    45     5    1
     4     5    27    1
     5    83    26    1
     6    61    11    1
     7    49     6    1
     8    48     6    1
     9    27    26    1
    10    27     6    1
    11    27    24    1
    12    32    26    1
    13    32    84    1
    14    81    24    1
    15    26    14    1
    16     6    47    1
    17    24    11    1
    18    24    30    1
    19    11    60    1
    20    11    12    1
    21    62    12    1
    22    63    12    1
    23    12    25    1
    24    14    67    1
    25    14    66    1
    26    14    16    1
    27    76    19    1
    28    55     8    1
    29    30    19    1
    30    30    16    1
    31    30    31    1
    32    19    77    1
    33    19    31    1
    34    68    15    1
    35    16    71    1
    36    16    70    1
    37    25    31    1
    38    25    82    1
    39    25    29    1
    40     8    54    1
    41     8    53    1
    42     8    29    1
    43    31    18    1
    44    29    15    1
    45    29    28    1
    46    15    69    1
    47    15    13    1
    48    18    75    1
    49    18    74    1
    50    18    17    1
    51    64    13    1
    52    13    65    1
    53    13    23    1
    54    51     7    1
    55    28     7    1
    56    28    17    1
    57    28    23    1
    58    52     7    1
    59    73    17    1
    60     7    50    1
    61    17    72    1
    62    23    80    1
    63    23    22    1
    64    59    10    1
    65    58    10    1
    66    22    10    1
    67    22    79    1
    68    22     4    1
    69    10     9    1
    70    41     4    1
    71    39     3    1
    72     4    42    1
    73     4    43    1
    74     3    40    1
    75     3    21    2
    76    57     9    1
    77     9    21    1
    78     9    56    1
    79    37     2    1
    80    21    20    1
    81    36     2    1
    82     2    20    1
    83     2    38    1
    84    20    78    1
    85    20     1    1
    86    33     1    1
    87     1    34    1
    88     1    35    1
