@<TRIPOS>MOLECULE
BERBFZCUSMQABM-IEXPHMLFSA-J	11152738	-4095.971829678263
 89 91 0 0 0
SMALL
MULLIKEN NwChem

@<TRIPOS>ATOM
      1 C           1.7607    0.3421   -3.0542 C.3     1  LIG1      -0.46999999999999975
      2 C           2.9183    2.1917   -1.8044 C.3     1  LIG1      -0.46999999999999975
      3 C           7.3871    1.1581   -0.5272 C.3     1  LIG1       -0.3600000000000003
      4 C          15.4252    0.1679    0.5094 C.3     1  LIG1       -0.3700000000000001
      5 C           5.9114    1.2587   -0.9462 C.3     1  LIG1       -0.1200000000000001
      6 C          10.0467    1.2593    0.3442 C.3     1  LIG1       -0.11000000000000032
      7 C          16.4456    0.2189    1.6484 C.3     1  LIG1       -0.019999999999999574
      8 C          11.4232    1.5994    0.9399 C.3     1  LIG1       -0.41000000000000014
      9 C          -5.5844   -1.9227   -0.4952 C.3     1  LIG1       -0.1299999999999999
     10 C           0.9887    1.0601   -0.7699 C.3     1  LIG1       -0.07000000000000028
     11 C         -10.3221    3.1740    1.9810 C.ar    1  LIG1       0.15000000000000036
     12 C          -6.5199    1.6578    0.5023 C.ar    1  LIG1       0.20000000000000018
     13 C          -6.5246   -2.0013    0.6752 C.3     1  LIG1       0.13999999999999968
     14 C           7.9172    2.3400    0.3318 C.2     1  LIG1       0.4800000000000004
     15 C          14.2102    1.0500    0.8272 C.2     1  LIG1       0.2699999999999996
     16 C          -8.0014    3.1700    0.6845 C.ar    1  LIG1       0.1900000000000004
     17 C          -8.6669   -1.1279    1.3735 C.3     1  LIG1       0.07000000000000028
     18 C          -8.0148   -1.9557    0.2282 C.3     1  LIG1       0.11000000000000032
     19 C           3.2174   -0.2040   -1.0307 C.3     1  LIG1       0.05999999999999961
     20 C          -8.8357    4.2949    0.6345 C.ar    1  LIG1       0.4400000000000004
     21 C          -8.4767    2.0733    1.4265 C.ar    1  LIG1          0.54
     22 C           4.5030   -0.4586   -1.9266 C.2     1  LIG1       0.4800000000000004
     23 C          -7.5183   -0.2613    1.9026 C.3     1  LIG1       0.28000000000000025
     24 C           2.2233    0.8235   -1.6688 C.3     1  LIG1       0.08000000000000007
     25 N          -8.4593    5.4360   -0.0532 N.pl3   1  LIG1      -0.7800000000000002
     26 N           9.2012    2.3392    0.7342 N.am    1  LIG1      -0.6399999999999997
     27 N           5.6068    0.2232   -1.9224 N.am    1  LIG1      -0.5800000000000001
     28 N         -10.0110    4.2890    1.2856 N.ar    1  LIG1        -0.54
     29 N          -9.6347    2.0406    2.1110 N.ar    1  LIG1        -0.54
     30 N          -6.7782    2.8949    0.1130 N.ar    1  LIG1      -0.5899999999999999
     31 N          -7.5144    1.1039    1.2869 N.ar    1  LIG1      -0.5300000000000002
     32 O          17.6455   -0.5017    1.3474 O.3     1  LIG1      -0.6699999999999999
     33 O           7.1186    3.2644    0.6145 O.2     1  LIG1      -0.7100000000000009
     34 O          14.3725    2.1914    1.2356 O.2     1  LIG1         -0.5
     35 O          -9.0767   -2.0286    2.3842 O.3     1  LIG1      -0.6999999999999993
     36 O           2.6205   -1.5024   -0.9510 O.3     1  LIG1      -0.7300000000000004
     37 O           4.2740   -1.4730   -2.6993 O.2     1  LIG1      -0.7300000000000004
     38 O          -9.1739   -2.8746   -2.3531 O.2     1  LIG1      -0.7699999999999996
     39 O          -9.4230   -5.2282   -1.2292 O.3     1  LIG1      -0.7400000000000002
     40 O          -7.0576   -4.2079   -1.6591 O.3     1  LIG1      -0.7599999999999998
     41 O          -3.0701   -1.1436   -2.1488 O.3     1  LIG1      -0.6699999999999999
     42 O          -3.4125    0.5458   -0.2550 O.2     1  LIG1      -0.5999999999999996
     43 O           0.5695   -2.1390    0.4516 O.3     1  LIG1      -0.6899999999999995
     44 O          -0.4083   -0.0913    1.7529 O.2     1  LIG1      -0.5999999999999996
     45 O          -4.1783   -1.9860   -0.0219 O.3     1  LIG1      -0.5399999999999991
     46 O           0.0192   -0.0153   -0.8298 O.3     1  LIG1      -0.5600000000000005
     47 O          -6.3092   -0.8827    1.5914 O.3     1  LIG1      -0.5299999999999994
     48 O          -8.6112   -3.1981    0.1872 O.3     1  LIG1      -0.6899999999999995
     49 O          -1.7906   -1.5272    0.0358 O.3     1  LIG1      -0.5800000000000001
     50 P          -8.5750   -3.9989   -1.5095 P.3     1  LIG1       0.9600000000000009
     51 P          -3.1630   -0.8819   -0.5469 P.3     1  LIG1       1.2300000000000004
     52 P          -0.3624   -0.8584    0.4875 P.3     1  LIG1       1.1899999999999995
     53 S          12.6563    0.2556    0.5500 S.3     1  LIG1      0.08000000000000007
     54 H           2.6201    0.2054   -3.7154 H       1  LIG1       0.15000000000000002
     55 H           1.2437   -0.6157   -2.9689 H       1  LIG1       0.15000000000000002
     56 H           1.0657    1.0680   -3.4988 H       1  LIG1          0.14
     57 H           3.2737    2.5692   -0.8385 H       1  LIG1       0.15000000000000002
     58 H           2.2300    2.9337   -2.2323 H       1  LIG1       0.15000000000000002
     59 H           3.7873    2.1020   -2.4599 H       1  LIG1       0.16000000000000003
     60 H           7.9882    1.0670   -1.4457 H       1  LIG1          0.13
     61 H           7.5474    0.2043    0.0013 H       1  LIG1          0.13
     62 H          15.1194   -0.8677    0.3117 H       1  LIG1       0.18000000000000005
     63 H          15.8994    0.5540   -0.4029 H       1  LIG1       0.19999999999999996
     64 H           5.7694    2.2654   -1.3678 H       1  LIG1       0.09999999999999998
     65 H           5.2885    1.2456   -0.0346 H       1  LIG1       0.10999999999999999
     66 H          10.1854    1.1142   -0.7530 H       1  LIG1       0.10999999999999999
     67 H           9.7562    0.2479    0.7204 H       1  LIG1       0.10999999999999999
     68 H          16.7417    1.2565    1.8188 H       1  LIG1       0.16000000000000003
     69 H          15.9859   -0.1514    2.5790 H       1  LIG1       0.15000000000000002
     70 H          11.8160    2.5319    0.5284 H       1  LIG1       0.18000000000000005
     71 H          11.3563    1.6983    2.0260 H       1  LIG1       0.18000000000000005
     72 H          -5.8063   -2.7941   -1.1365 H       1  LIG1       0.22999999999999998
     73 H          -5.7367   -0.9893   -1.0475 H       1  LIG1       0.18999999999999995
     74 H           1.2837    1.2349    0.2711 H       1  LIG1       0.18000000000000005
     75 H           0.4491    1.9478   -1.1200 H       1  LIG1       0.17000000000000004
     76 H         -11.2769    3.2114    2.5060 H       1  LIG1       0.16000000000000003
     77 H          -5.6132    1.1099    0.2740 H       1  LIG1       0.22999999999999998
     78 H          -6.3552   -2.9268    1.2328 H       1  LIG1       0.16000000000000003
     79 H          -9.5082   -0.5130    1.0251 H       1  LIG1       0.16000000000000003
     80 H          -8.1206   -1.4323   -0.7346 H       1  LIG1          0.14
     81 H           3.4753    0.1343   -0.0195 H       1  LIG1          0.14
     82 H          -7.6025   -0.1085    2.9848 H       1  LIG1       0.18999999999999995
     83 H          -7.7486    5.2656   -0.7555 H       1  LIG1          0.37
     84 H          -9.2406    5.9963   -0.3698 H       1  LIG1          0.36
     85 H          17.3764   -1.4110    1.1431 H       1  LIG1       0.43000000000000005
     86 H          -9.1417   -2.8660    1.8474 H       1  LIG1       0.42000000000000004
     87 H           3.1069   -1.9048   -1.7734 H       1  LIG1       0.42000000000000004
     88 H          -3.1882   -2.0905   -2.3331 H       1  LIG1          0.48
     89 H           1.3998   -1.9418   -0.1195 H       1  LIG1           0.49
@<TRIPOS>BOND
     1    54     1    1
     2    56     1    1
     3     1    55    1
     4     1    24    1
     5    37    22    2
     6    59     2    1
     7    38    50    2
     8    88    41    1
     9    58     2    1
    10    41    51    1
    11    22    27   am
    12    22    19    1
    13    27     5    1
    14     2    24    1
    15     2    57    1
    16    87    36    1
    17    24    19    1
    18    24    10    1
    19    40    50    1
    20    50    39    1
    21    50    48    1
    22    60     3    1
    23    64     5    1
    24    72     9    1
    25    75    10    1
    26    73     9    1
    27    19    36    1
    28    19    81    1
    29     5     3    1
    30     5    65    1
    31    46    10    1
    32    46    52    1
    33    10    74    1
    34    83    25    1
    35    66     6    1
    36    80    18    1
    37    51    42    2
    38    51    45    1
    39    51    49    1
    40     3    61    1
    41     3    14    1
    42     9    45    1
    43     9    13    1
    44    63     4    1
    45    84    25    1
    46    89    43    1
    47    25    20    1
    48    49    52    1
    49    30    12   ar
    50    30    16   ar
    51    48    18    1
    52    18    13    1
    53    18    17    1
    54    77    12    1
    55    62     4    1
    56    14    33    2
    57    14    26   am
    58     6    67    1
    59     6    26    1
    60     6     8    1
    61    43    52    1
    62    52    44    2
    63    12    31   ar
    64     4    15    1
    65     4     7    1
    66    70     8    1
    67    53    15    1
    68    53     8    1
    69    20    16   ar
    70    20    28   ar
    71    13    78    1
    72    13    47    1
    73    16    21   ar
    74    15    34    2
    75     8    71    1
    76    79    17    1
    77    85    32    1
    78    28    11   ar
    79    31    21   ar
    80    31    23    1
    81    32     7    1
    82    17    23    1
    83    17    35    1
    84    21    29   ar
    85    47    23    1
    86     7    68    1
    87     7    69    1
    88    86    35    1
    89    23    82    1
    90    11    29   ar
    91    11    76    1
