@<TRIPOS>MOLECULE
BGWGXPAPYGQALX-ARQDHWQXSA-L	11152736	-1253.7988266809198
 27 27 0 0 0
SMALL
MULLIKEN NwChem

@<TRIPOS>ATOM
      1 C           0.7428    0.5745   -1.4376 C.3     1  LIG1       -0.04999999999999982
      2 C          -3.8312    0.3692   -0.0889 C.3     1  LIG1       -0.040000000000000036
      3 C          -0.2378    0.7824   -0.2835 C.3     1  LIG1       0.1200000000000001
      4 C          -0.2004   -0.2502    0.8734 C.3     1  LIG1       0.15000000000000036
      5 C          -1.6867   -0.2053    1.2969 C.3     1  LIG1       0.05999999999999961
      6 C          -2.4104   -0.1907   -0.0435 C.3     1  LIG1       0.4900000000000002
      7 O          -4.7547   -0.4954    0.5652 O.3     1  LIG1      -0.6799999999999997
      8 O           0.5969   -0.1177    1.9496 O.3     1  LIG1      -0.8000000000000007
      9 O          -1.9395   -1.2936    2.1708 O.3     1  LIG1      -0.6899999999999995
     10 O          -2.5373   -1.5167   -0.5760 O.3     1  LIG1      -0.6899999999999995
     11 O           3.0836   -0.1542    1.0448 O.3     1  LIG1      -0.7699999999999996
     12 O           4.4832    0.0168   -1.0781 O.2     1  LIG1      -0.7100000000000009
     13 O           2.4608   -1.6766   -0.9715 O.3     1  LIG1      -0.7400000000000002
     14 O           2.0657    0.8833   -1.0714 O.3     1  LIG1      -0.6199999999999992
     15 O          -1.6028    0.6554   -0.8411 O.3     1  LIG1      -0.5800000000000001
     16 P           3.1211   -0.3743   -0.5675 P.3     1  LIG1       1.0500000000000007
     17 H           0.6575   -0.4612   -1.7906 H       1  LIG1          0.14
     18 H           0.4441    1.2463   -2.2628 H       1  LIG1          0.13
     19 H          -4.1031    0.5169   -1.1487 H       1  LIG1          0.13
     20 H          -3.8492    1.3455    0.4086 H       1  LIG1       0.15000000000000002
     21 H          -0.1269    1.7962    0.1295 H       1  LIG1          0.12
     22 H          -0.0613   -1.2398    0.3477 H       1  LIG1       0.040000000000000036
     23 H          -1.8648    0.7581    1.8057 H       1  LIG1          0.12
     24 H          -4.3293   -1.3682    0.4732 H       1  LIG1       0.42000000000000004
     25 H           2.1301   -0.1883    1.4043 H       1  LIG1       0.43000000000000005
     26 H          -1.0478   -1.3381    2.5989 H       1  LIG1           0.4
     27 H          -1.7936   -2.0170   -0.1954 H       1  LIG1       0.42000000000000004
@<TRIPOS>BOND
     1    18     1    1
     2    17     1    1
     3     1    14    1
     4     1     3    1
     5    19     2    1
     6    12    16    2
     7    14    16    1
     8    13    16    1
     9    15     3    1
    10    15     6    1
    11    10    27    1
    12    10     6    1
    13    16    11    1
    14     3    21    1
    15     3     4    1
    16     2     6    1
    17     2    20    1
    18     2     7    1
    19     6     5    1
    20    22     4    1
    21    24     7    1
    22     4     5    1
    23     4     8    1
    24    11    25    1
    25     5    23    1
    26     5     9    1
    27     9    26    1
