@<TRIPOS>MOLECULE
BHHGXPLMPWCGHP-UHFFFAOYSA-O	6044338	-366.5465030314725
 21 21 0 0 0
SMALL
MULLIKEN NwChem

@<TRIPOS>ATOM
      1 C          -2.5043   -0.4849    0.4410 C.ar    1  LIG1      -0.15000000000000036
      2 C          -1.9231    0.7124    0.8583 C.ar    1  LIG1      -0.13999999999999968
      3 C          -1.6932   -1.5573    0.0567 C.ar    1  LIG1      -0.15000000000000036
      4 C          -0.5299    0.8386    0.8883 C.ar    1  LIG1      -0.20999999999999996
      5 C          -0.3050   -1.4311    0.0814 C.ar    1  LIG1      -0.17999999999999972
      6 C           1.7988   -0.0687    0.4518 C.3     1  LIG1      -0.3600000000000003
      7 C           2.2676    0.2352   -0.9776 C.3     1  LIG1      -0.16999999999999993
      8 C           0.2925   -0.2335    0.5023 C.ar    1  LIG1      0.09999999999999964
      9 N           1.5291    1.4682   -1.4922 N.4     1  LIG1         -0.71
     10 H          -3.5849   -0.5881    0.4254 H       1  LIG1       0.16000000000000003
     11 H          -2.5471    1.5422    1.1764 H       1  LIG1       0.16000000000000003
     12 H          -2.1435   -2.4946   -0.2558 H       1  LIG1       0.16000000000000003
     13 H          -0.0822    1.7581    1.2641 H       1  LIG1       0.17000000000000004
     14 H           0.3196   -2.2732   -0.2090 H       1  LIG1       0.16000000000000003
     15 H           2.1334    0.7266    1.1295 H       1  LIG1       0.18999999999999995
     16 H           2.3130   -0.9838    0.7651 H       1  LIG1       0.19999999999999996
     17 H           3.3364    0.4464   -1.0528 H       1  LIG1       0.22999999999999998
     18 H           2.0046   -0.5742   -1.6622 H       1  LIG1       0.21999999999999997
     19 H           1.8659    2.3244   -1.0365 H       1  LIG1      0.44999999999999996
     20 H           1.6196    1.5928   -2.5065 H       1  LIG1      0.44999999999999996
     21 H           0.5257    1.3697   -1.2481 H       1  LIG1      0.43000000000000005
@<TRIPOS>BOND
     1    20     9    1
     2    18     7    1
     3     9    21    1
     4     9    19    1
     5     9     7    1
     6    17     7    1
     7     7     6    1
     8    12     3    1
     9    14     5    1
    10     3     5   ar
    11     3     1   ar
    12     5     8   ar
    13    10     1    1
    14     1     2   ar
    15     6     8    1
    16     6    16    1
    17     6    15    1
    18     8     4   ar
    19     2     4   ar
    20     2    11    1
    21     4    13    1
