@<TRIPOS>MOLECULE
BIRSGZKFKXLSJQ-SQOUGZDYSA-K	11152732	-1328.5856908747162
 27 26 0 0 0
SMALL
MULLIKEN NwChem

@<TRIPOS>ATOM
      1 C           1.8938    0.5316   -0.0802 C.3     1  LIG1       -0.040000000000000036
      2 C           0.5826    0.6936    0.7088 C.3     1  LIG1       0.08999999999999986
      3 C          -0.6654    0.3371   -0.1146 C.3     1  LIG1       0.1299999999999999
      4 C          -1.9711    0.3978    0.7281 C.3     1  LIG1       0.11000000000000032
      5 C          -3.2690    0.5764   -0.0919 C.3     1  LIG1       0.03000000000000025
      6 C          -4.4971    0.9797    0.8110 C.2     1  LIG1       0.5199999999999996
      7 O           0.4539    2.0688    1.1434 O.3     1  LIG1      -0.6899999999999995
      8 O          -0.5263   -0.9849   -0.6275 O.3     1  LIG1      -0.7200000000000006
      9 O          -2.0312   -0.7773    1.5381 O.3     1  LIG1      -0.6999999999999993
     10 O          -3.6175   -0.5841   -0.8333 O.3     1  LIG1      -0.7100000000000009
     11 O          -4.3976    2.0175    1.5026 O.co2   1  LIG1      -0.6600000000000001
     12 O          -5.4967    0.1974    0.6998 O.co2   1  LIG1      -0.6799999999999997
     13 O           4.6267   -0.6197    0.3839 O.3     1  LIG1      -0.7799999999999994
     14 O           3.8636   -2.6244   -1.1081 O.3     1  LIG1      -0.7599999999999998
     15 O           4.0585   -0.2220   -2.1203 O.2     1  LIG1      -0.7799999999999994
     16 O           2.1283   -0.7994   -0.4069 O.3     1  LIG1      -0.6699999999999999
     17 P           3.9160   -1.1153   -0.8840 P.3     1  LIG1       0.9299999999999997
     18 H           1.8429    1.1885   -0.9737 H       1  LIG1       0.10999999999999999
     19 H           2.7229    0.9150    0.5515 H       1  LIG1       0.10999999999999999
     20 H           0.6102    0.0227    1.5817 H       1  LIG1          0.12
     21 H          -0.7356    1.0737   -0.9364 H       1  LIG1          0.12
     22 H          -1.9120    1.2644    1.3956 H       1  LIG1          0.13
     23 H          -3.0995    1.4297   -0.7779 H       1  LIG1          0.12
     24 H           1.3697    2.3448    1.3110 H       1  LIG1       0.43000000000000005
     25 H           0.4585   -1.1562   -0.6952 H       1  LIG1       0.43000000000000005
     26 H          -1.6970   -1.4523    0.9137 H       1  LIG1       0.42000000000000004
     27 H          -4.5127   -0.7424   -0.4348 H       1  LIG1           0.39
@<TRIPOS>BOND
     1    15    17    2
     2    14    17    1
     3    18     1    1
     4    21     3    1
     5    17    16    1
     6    17    13    1
     7    10    27    1
     8    10     5    1
     9    23     5    1
    10    25     8    1
    11     8     3    1
    12    16     1    1
    13     3     2    1
    14     3     4    1
    15     5     4    1
    16     5     6    1
    17     1    19    1
    18     1     2    1
    19    12     6   ar
    20     2     7    1
    21     2    20    1
    22     4    22    1
    23     4     9    1
    24     6    11   ar
    25    26     9    1
    26     7    24    1
