@<TRIPOS>MOLECULE
BITYXLXUCSKTJS-ZETCQYMHSA-L	6044342	-649.0556583444765
 22 21 0 0 0
SMALL
MULLIKEN NwChem

@<TRIPOS>ATOM
      1 C           1.8600   -0.9314   -1.3656 C.3     1  LIG1      -0.4800000000000004
      2 C           1.7394    1.5918   -1.1991 C.3     1  LIG1      -0.46999999999999975
      3 C          -0.8322   -1.1081    0.1051 C.3     1  LIG1       -0.34999999999999964
      4 C           1.2760    0.2588   -0.5913 C.3     1  LIG1      -0.03000000000000025
      5 C          -0.2528   -1.7348    1.4266 C.2     1  LIG1           0.5
      6 C          -0.8338    1.4712    0.2304 C.2     1  LIG1       0.5300000000000002
      7 C          -0.2699    0.1984   -0.5258 C.3     1  LIG1       0.23000000000000043
      8 O          -1.1026   -2.0475    2.3010 O.co2   1  LIG1      -0.6899999999999995
      9 O           0.9941   -1.9605    1.4517 O.co2   1  LIG1      -0.6600000000000001
     10 O          -1.7906    2.0485   -0.3909 O.co2   1  LIG1      -0.6899999999999995
     11 O          -0.3089    1.8087    1.3109 O.co2   1  LIG1      -0.6600000000000001
     12 O          -0.7944    0.2758   -1.8752 O.3     1  LIG1        -0.75
     13 H           1.3985   -1.0098   -2.3599 H       1  LIG1          0.13
     14 H           1.6802   -1.8422   -0.7879 H       1  LIG1       0.15000000000000002
     15 H           2.9494   -0.8178   -1.5030 H       1  LIG1          0.12
     16 H           1.2898    1.7260   -2.1915 H       1  LIG1          0.13
     17 H           1.4285    2.4264   -0.5617 H       1  LIG1          0.13
     18 H           2.8363    1.6245   -1.3053 H       1  LIG1          0.13
     19 H          -1.9117   -0.9602    0.2321 H       1  LIG1       0.09999999999999998
     20 H          -0.7165   -1.8803   -0.6729 H       1  LIG1          0.13
     21 H           1.6182    0.1873    0.4441 H       1  LIG1       0.09999999999999998
     22 H          -1.4430    1.0158   -1.7241 H       1  LIG1           0.39
@<TRIPOS>BOND
     1    13     1    1
     2    16     2    1
     3    12    22    1
     4    12     7    1
     5    15     1    1
     6     1    14    1
     7     1     4    1
     8    18     2    1
     9     2     4    1
    10     2    17    1
    11    20     3    1
    12     4     7    1
    13     4    21    1
    14     7     3    1
    15     7     6    1
    16    10     6   ar
    17     3    19    1
    18     3     5    1
    19     6    11   ar
    20     5     9   ar
    21     5     8   ar
