@<TRIPOS>MOLECULE
BJEPYKJPYRNKOW-UWTATZPHSA-L	6044344	-531.1883083599467
 13 12 0 0 0
SMALL
MULLIKEN NwChem

@<TRIPOS>ATOM
      1 C           0.3325    0.7337    0.3617 C.3     1  LIG1       -0.34999999999999964
      2 C          -0.5509   -0.4845    0.0677 C.3     1  LIG1       0.05999999999999961
      3 C           1.3565    0.6011    1.5474 C.2     1  LIG1       0.5099999999999998
      4 C          -1.2181   -0.4214   -1.3555 C.2     1  LIG1       0.5099999999999998
      5 O          -1.5965   -0.6397    1.0389 O.3     1  LIG1      -0.7300000000000004
      6 O           1.9083   -0.5247    1.6919 O.co2   1  LIG1      -0.6799999999999997
      7 O           1.5756    1.6618    2.2011 O.co2   1  LIG1      -0.6999999999999993
      8 O          -2.4958   -0.4613   -1.3393 O.co2   1  LIG1      -0.6799999999999997
      9 O          -0.4718   -0.3488   -2.3600 O.co2   1  LIG1      -0.6699999999999999
     10 H          -0.3055    1.6127    0.5308 H       1  LIG1       0.10999999999999999
     11 H           0.9174    0.9238   -0.5514 H       1  LIG1          0.13
     12 H           0.1115   -1.3645    0.0980 H       1  LIG1       0.09999999999999998
     13 H          -2.3694   -0.5927    0.4194 H       1  LIG1           0.39
@<TRIPOS>BOND
     1     9     4   ar
     2     4     8   ar
     3     4     2    1
     4    11     1    1
     5     2    12    1
     6     2     1    1
     7     2     5    1
     8     1    10    1
     9     1     3    1
    10    13     5    1
    11     3     6   ar
    12     3     7   ar
