@<TRIPOS>MOLECULE
BJEPYKJPYRNKOW-REOHCLBHSA-L	6044343	-531.1870731293646
 13 12 0 0 0
SMALL
MULLIKEN NwChem

@<TRIPOS>ATOM
      1 C           0.4367    1.1532    0.3729 C.3     1  LIG1       -0.3600000000000003
      2 C          -0.1048    0.4490   -0.8827 C.3     1  LIG1       0.05999999999999961
      3 C          -0.0256    0.6542    1.7902 C.2     1  LIG1           0.5
      4 C           0.5294   -0.9523   -1.2104 C.2     1  LIG1       0.5199999999999996
      5 O          -1.5274    0.3303   -0.8934 O.3     1  LIG1      -0.7200000000000006
      6 O          -0.1537    1.5737    2.6550 O.co2   1  LIG1      -0.6999999999999993
      7 O          -0.1595   -0.5844    1.9481 O.co2   1  LIG1      -0.6699999999999999
      8 O          -0.3252   -1.8701   -1.4230 O.co2   1  LIG1      -0.6799999999999997
      9 O           1.7767   -1.0064   -1.3293 O.co2   1  LIG1      -0.6699999999999999
     10 H           0.2092    2.2296    0.3181 H       1  LIG1       0.10999999999999999
     11 H           1.5329    1.0534    0.3213 H       1  LIG1          0.12
     12 H           0.1979    1.0805   -1.7479 H       1  LIG1       0.10999999999999999
     13 H          -1.5808   -0.6561   -0.9897 H       1  LIG1           0.39
@<TRIPOS>BOND
     1    12     2    1
     2     8     4   ar
     3     9     4   ar
     4     4     2    1
     5    13     5    1
     6     5     2    1
     7     2     1    1
     8    10     1    1
     9    11     1    1
    10     1     3    1
    11     3     7   ar
    12     3     6   ar
