@<TRIPOS>MOLECULE
BJHIKXHVCXFQLS-UYFOZJQFSA-N	6044346	-687.0149313947968
 24 23 0 0 0
SMALL
MULLIKEN NwChem

@<TRIPOS>ATOM
      1 C          -0.3952    2.3870   -0.9478 C.3     1  LIG1       -0.08000000000000007
      2 C           1.0668   -1.9477    1.9740 C.3     1  LIG1       -0.09999999999999964
      3 C          -1.1848    1.1950   -0.3800 C.3     1  LIG1       0.08000000000000007
      4 C           0.8230   -0.6138    1.2852 C.2     1  LIG1       0.4299999999999997
      5 C          -0.6196   -0.1725   -0.8131 C.3     1  LIG1       0.1200000000000001
      6 C           0.7621   -0.5675   -0.2377 C.3     1  LIG1       0.009999999999999787
      7 O          -0.6536    2.5502   -2.3386 O.3     1  LIG1      -0.6799999999999997
      8 O           1.0822   -1.8149    3.3646 O.3     1  LIG1      -0.6600000000000001
      9 O          -2.5403    1.2888   -0.7832 O.3     1  LIG1      -0.6799999999999997
     10 O           0.6923    0.3985    1.9531 O.2     1  LIG1      -0.4900000000000002
     11 O          -0.5043   -0.1858   -2.2392 O.3     1  LIG1      -0.6799999999999997
     12 O           1.1846   -1.7950   -0.8470 O.3     1  LIG1      -0.6600000000000001
     13 H           0.6804    2.2862   -0.7345 H       1  LIG1       0.16000000000000003
     14 H          -0.7453    3.3020   -0.4620 H       1  LIG1       0.17000000000000004
     15 H           0.2751   -2.6514    1.6533 H       1  LIG1       0.18000000000000005
     16 H           2.0138   -2.3607    1.5912 H       1  LIG1       0.18999999999999995
     17 H          -1.1658    1.2390    0.7120 H       1  LIG1       0.16000000000000003
     18 H          -1.3532   -0.9342   -0.4954 H       1  LIG1       0.15000000000000002
     19 H           1.4991    0.1738   -0.5630 H       1  LIG1       0.20999999999999996
     20 H          -0.3846    1.7110   -2.7564 H       1  LIG1       0.43000000000000005
     21 H           0.9286   -0.8669    3.5439 H       1  LIG1       0.42000000000000004
     22 H          -2.5080    1.6442   -1.6906 H       1  LIG1       0.42000000000000004
     23 H           0.0721   -0.9376   -2.4635 H       1  LIG1       0.43999999999999995
     24 H           0.5288   -2.4826   -0.6389 H       1  LIG1       0.43999999999999995
@<TRIPOS>BOND
     1    20     7    1
     2    23    11    1
     3     7     1    1
     4    11     5    1
     5    22     9    1
     6     1    13    1
     7     1    14    1
     8     1     3    1
     9    12    24    1
    10    12     6    1
    11     5    18    1
    12     5     3    1
    13     5     6    1
    14     9     3    1
    15    19     6    1
    16     3    17    1
    17     6     4    1
    18     4    10    2
    19     4     2    1
    20    16     2    1
    21    15     2    1
    22     2     8    1
    23     8    21    1
