@<TRIPOS>MOLECULE
BJHIKXHVCXFQLS-OTWZMJIISA-N	6044345	-687.0123918948943
 24 23 0 0 0
SMALL
MULLIKEN NwChem

@<TRIPOS>ATOM
      1 C           0.1709   -0.4121   -2.2784 C.3     1  LIG1       -0.08999999999999986
      2 C           0.7052   -1.7775    2.2891 C.3     1  LIG1       -0.1200000000000001
      3 C          -0.7020    0.6761   -1.6546 C.3     1  LIG1       0.08999999999999986
      4 C           0.7209   -0.8835    1.0491 C.2     1  LIG1       0.45999999999999996
      5 C          -0.3282    1.0919   -0.2203 C.3     1  LIG1       0.1299999999999999
      6 C          -0.5154    0.0009    0.8458 C.3     1  LIG1       0.040000000000000036
      7 O           1.5154    0.0365   -2.3860 O.3     1  LIG1      -0.6799999999999997
      8 O          -0.5797   -2.0441    2.8020 O.3     1  LIG1      -0.6600000000000001
      9 O          -0.6359    1.8583   -2.4595 O.3     1  LIG1      -0.6699999999999999
     10 O           1.6860   -0.8705    0.3031 O.2     1  LIG1      -0.4900000000000002
     11 O          -1.1946    2.1589    0.1649 O.3     1  LIG1      -0.6999999999999993
     12 O          -0.7666    0.5814    2.1291 O.3     1  LIG1      -0.6899999999999995
     13 H          -0.1893   -0.5959   -3.2958 H       1  LIG1       0.17000000000000004
     14 H           0.0957   -1.3523   -1.7152 H       1  LIG1       0.16000000000000003
     15 H           1.1657   -2.7317    2.0143 H       1  LIG1       0.19999999999999996
     16 H           1.3730   -1.2985    3.0267 H       1  LIG1       0.18999999999999995
     17 H          -1.7538    0.3629   -1.6537 H       1  LIG1       0.16000000000000003
     18 H           0.7164    1.4349   -0.2098 H       1  LIG1          0.14
     19 H          -1.3533   -0.6609    0.5646 H       1  LIG1       0.18000000000000005
     20 H           1.9149   -0.1299   -1.5116 H       1  LIG1       0.43999999999999995
     21 H          -0.9581   -1.1828    3.0566 H       1  LIG1       0.43999999999999995
     22 H           0.3048    1.9364   -2.7075 H       1  LIG1       0.42000000000000004
     23 H          -1.2575    2.7322   -0.6206 H       1  LIG1       0.43000000000000005
     24 H          -1.2571    1.4052    1.9481 H       1  LIG1       0.44999999999999996
@<TRIPOS>BOND
     1    13     1    1
     2    22     9    1
     3     9     3    1
     4     7     1    1
     5     7    20    1
     6     1    14    1
     7     1     3    1
     8     3    17    1
     9     3     5    1
    10    23    11    1
    11     5    18    1
    12     5    11    1
    13     5     6    1
    14    10     4    2
    15    19     6    1
    16     6     4    1
    17     6    12    1
    18     4     2    1
    19    24    12    1
    20    15     2    1
    21     2     8    1
    22     2    16    1
    23     8    21    1
