@<TRIPOS>MOLECULE
BJYPZFUWWJSAKC-ARJAWSKDSA-K	6044347	-721.4277221446029
 18 17 0 0 0
SMALL
MULLIKEN NwChem

@<TRIPOS>ATOM
      1 C          -0.7957   -2.0383   -0.9048 C.3     1  LIG1      -0.5499999999999998
      2 C           0.8339   -0.7199    1.0994 C.3     1  LIG1       -0.4299999999999997
      3 C          -0.4194   -0.5707   -1.0874 C.2     1  LIG1           0.0
      4 C           0.2793    0.0594   -0.1051 C.2     1  LIG1       0.009999999999999787
      5 C          -0.0103   -1.1400    2.3801 C.2     1  LIG1       0.5099999999999998
      6 C          -0.8453    0.0304   -2.4559 C.2     1  LIG1       0.45999999999999996
      7 C           0.7773    1.5332   -0.0878 C.2     1  LIG1       0.4500000000000002
      8 O          -1.2579   -1.2862    2.2890 O.co2   1  LIG1      -0.6600000000000001
      9 O           0.7067   -1.3778    3.4026 O.co2   1  LIG1      -0.6899999999999995
     10 O          -1.6185   -0.6974   -3.1761 O.co2   1  LIG1      -0.6999999999999993
     11 O          -0.3907    1.1547   -2.7944 O.co2   1  LIG1      -0.6899999999999995
     12 O           2.0244    1.6668   -0.2871 O.co2   1  LIG1      -0.6999999999999993
     13 O          -0.0395    2.4282    0.2541 O.co2   1  LIG1      -0.6799999999999997
     14 H          -1.1181   -2.2401    0.1224 H       1  LIG1          0.14
     15 H           0.0494   -2.7254   -1.1303 H       1  LIG1          0.13
     16 H          -1.5936   -2.2723   -1.6172 H       1  LIG1          0.14
     17 H           1.7036   -0.1704    1.4739 H       1  LIG1          0.12
     18 H           1.2402   -1.6856    0.7431 H       1  LIG1           0.14
@<TRIPOS>BOND
     1    10     6   ar
     2    11     6   ar
     3     6     3    1
     4    16     1    1
     5    15     1    1
     6     3     1    1
     7     3     4    2
     8     1    14    1
     9    12     7   ar
    10     4     7    1
    11     4     2    1
    12     7    13   ar
    13    18     2    1
    14     2    17    1
    15     2     5    1
    16     8     5   ar
    17     5     9   ar
