@<TRIPOS>MOLECULE
BKAJNAXTPSGJCU-UHFFFAOYSA-M	6044348	-459.7772601627099
 18 17 0 0 0
SMALL
MULLIKEN NwChem

@<TRIPOS>ATOM
      1 C           2.0457    0.5720   -0.8994 C.3     1  LIG1      -0.45999999999999996
      2 C           1.7333    2.2474    0.9822 C.3     1  LIG1      -0.4500000000000002
      3 C          -0.2814    1.1044   -0.0331 C.3     1  LIG1       -0.34999999999999964
      4 C           1.2119    0.9605    0.3288 C.3     1  LIG1      -0.07000000000000028
      5 C          -0.8944   -0.1556   -0.6615 C.2     1  LIG1       0.3799999999999999
      6 C          -0.7403   -1.4341    0.1841 C.2     1  LIG1       0.4800000000000004
      7 O          -1.4575   -0.0905   -1.7497 O.2     1  LIG1      -0.5500000000000007
      8 O          -1.6557   -1.6236    1.0164 O.co2   1  LIG1      -0.6500000000000004
      9 O           0.3216   -2.0721   -0.0411 O.co2   1  LIG1      -0.6400000000000006
     10 H           1.9148    1.3002   -1.7128 H       1  LIG1          0.14
     11 H           1.7312   -0.4180   -1.2426 H       1  LIG1          0.14
     12 H           3.1157    0.5307   -0.6519 H       1  LIG1          0.14
     13 H           1.6732    3.0936    0.2828 H       1  LIG1          0.14
     14 H           1.1481    2.5117    1.8729 H       1  LIG1          0.14
     15 H           2.7838    2.1436    1.2870 H       1  LIG1       0.15000000000000002
     16 H          -0.8513    1.3175    0.8834 H       1  LIG1       0.17000000000000004
     17 H          -0.4296    1.9400   -0.7327 H       1  LIG1          0.14
     18 H           1.2978    0.1368    1.0481 H       1  LIG1           0.13
@<TRIPOS>BOND
     1     7     5    2
     2    10     1    1
     3    11     1    1
     4     1    12    1
     5     1     4    1
     6    17     3    1
     7     5     3    1
     8     5     6    1
     9     9     6   ar
    10     3     4    1
    11     3    16    1
    12     6     8   ar
    13    13     2    1
    14     4     2    1
    15     4    18    1
    16     2    15    1
    17     2    14    1
