@<TRIPOS>MOLECULE
BKAWJIRCKVUVED-UHFFFAOYSA-N	6044349	-762.0973735780923
 18 18 0 0 0
SMALL
MULLIKEN NwChem

@<TRIPOS>ATOM
      1 C           1.0713    0.8773   -2.3030 C.3     1  LIG1      -0.5199999999999996
      2 C          -0.1259    1.5739    0.6135 C.3     1  LIG1       -0.33999999999999986
      3 C          -1.6597    1.6959    0.5085 C.3     1  LIG1       -0.040000000000000036
      4 C           1.0389   -2.0769   -0.2435 C.ar    1  LIG1       -0.13999999999999968
      5 C           0.8924   -0.0579   -1.1414 C.ar    1  LIG1       0.28000000000000025
      6 C           0.3991    0.2634    0.1007 C.ar    1  LIG1       -0.17999999999999972
      7 N           1.2525   -1.3835   -1.3192 N.ar    1  LIG1      -0.4400000000000004
      8 O          -2.3459    0.7569    1.3207 O.3     1  LIG1      -0.6600000000000001
      9 S           0.3754   -1.1782    1.0997 S.2     1  LIG1      0.21000000000000085
     10 H           0.8739    1.9172   -2.0301 H       1  LIG1       0.18000000000000005
     11 H           0.3953    0.6071   -3.1231 H       1  LIG1       0.18000000000000005
     12 H           2.0933    0.8078   -2.6909 H       1  LIG1       0.17000000000000004
     13 H           0.1579    1.7154    1.6627 H       1  LIG1       0.17000000000000004
     14 H           0.3313    2.3925    0.0448 H       1  LIG1       0.18000000000000005
     15 H          -1.9667    2.6835    0.8691 H       1  LIG1       0.16000000000000003
     16 H          -1.9613    1.6147   -0.5480 H       1  LIG1       0.15000000000000002
     17 H           1.2477   -3.1374   -0.1541 H       1  LIG1       0.20999999999999996
     18 H          -2.2146   -0.1232    0.9341 H       1  LIG1       0.43000000000000005
@<TRIPOS>BOND
     1    11     1    1
     2    12     1    1
     3     1    10    1
     4     1     5    1
     5     7     5   ar
     6     7     4   ar
     7     5     6   ar
     8    16     3    1
     9     4    17    1
    10     4     9   ar
    11    14     2    1
    12     6     2    1
    13     6     9   ar
    14     3     2    1
    15     3    15    1
    16     3     8    1
    17     2    13    1
    18    18     8    1
