@<TRIPOS>MOLECULE
BKBDVQVDRVGXKT-UHFFFAOYSA-N	6044350	-779.0417271490779
 50 49 0 0 0
SMALL
MULLIKEN NwChem

@<TRIPOS>ATOM
      1 C           3.6156    6.3459    2.4492 C.3     1  LIG1      -0.45999999999999996
      2 C           3.7036    5.5167    1.1629 C.3     1  LIG1      -0.2599999999999998
      3 C           4.0182    4.0299    1.3983 C.3     1  LIG1      -0.2599999999999998
      4 C           3.0013    3.2732    2.2718 C.3     1  LIG1      -0.2699999999999996
      5 C           1.5467    3.3271    1.7736 C.3     1  LIG1      -0.2699999999999996
      6 C           1.3282    2.8109    0.3405 C.3     1  LIG1      -0.2699999999999996
      7 C           1.8019    1.3689    0.0878 C.3     1  LIG1      -0.2699999999999996
      8 C           1.1815    0.3071    1.0127 C.3     1  LIG1      -0.2699999999999996
      9 C          -0.3559    0.2491    1.0008 C.3     1  LIG1      -0.2699999999999996
     10 C          -0.9902    0.0202   -0.3823 C.3     1  LIG1      -0.2699999999999996
     11 C          -0.5145   -1.2458   -1.1167 C.3     1  LIG1      -0.2699999999999996
     12 C          -0.7110   -2.5597   -0.3410 C.3     1  LIG1      -0.28000000000000025
     13 C          -2.1619   -2.8550    0.0820 C.3     1  LIG1      -0.28000000000000025
     14 C          -3.1964   -2.8574   -1.0569 C.3     1  LIG1      -0.29000000000000004
     15 C          -2.8590   -5.2472   -1.8145 C.2     1  LIG1       0.2400000000000002
     16 C          -2.9062   -3.7965   -2.2496 C.3     1  LIG1       0.08000000000000007
     17 O          -3.6280   -6.0759   -2.2610 O.2     1  LIG1      -0.4499999999999993
     18 O          -3.8826   -3.6140   -3.2484 O.3     1  LIG1      -0.6899999999999995
     19 H           2.7820    6.0224    3.0828 H       1  LIG1       0.15000000000000002
     20 H           3.4668    7.4086    2.2261 H       1  LIG1          0.14
     21 H           4.5355    6.2536    3.0405 H       1  LIG1          0.14
     22 H           2.7637    5.6125    0.6028 H       1  LIG1          0.14
     23 H           4.4835    5.9385    0.5147 H       1  LIG1          0.13
     24 H           4.1042    3.5293    0.4245 H       1  LIG1          0.14
     25 H           5.0086    3.9475    1.8686 H       1  LIG1          0.13
     26 H           3.3226    2.2259    2.3494 H       1  LIG1          0.14
     27 H           3.0332    3.6683    3.2957 H       1  LIG1          0.13
     28 H           0.9194    2.7529    2.4686 H       1  LIG1          0.14
     29 H           1.1808    4.3609    1.8302 H       1  LIG1          0.13
     30 H           0.2596    2.8911    0.1008 H       1  LIG1          0.14
     31 H           1.8411    3.4739   -0.3688 H       1  LIG1          0.13
     32 H           1.5899    1.1116   -0.9586 H       1  LIG1          0.13
     33 H           2.8943    1.3206    0.1883 H       1  LIG1          0.13
     34 H           1.5867   -0.6753    0.7352 H       1  LIG1          0.14
     35 H           1.5139    0.4829    2.0442 H       1  LIG1          0.14
     36 H          -0.6797   -0.5445    1.6877 H       1  LIG1          0.14
     37 H          -0.7591    1.1819    1.4165 H       1  LIG1          0.14
     38 H          -2.0816   -0.0125   -0.2644 H       1  LIG1          0.14
     39 H          -0.7893    0.8875   -1.0244 H       1  LIG1          0.14
     40 H          -1.0367   -1.3061   -2.0811 H       1  LIG1          0.14
     41 H           0.5506   -1.1464   -1.3630 H       1  LIG1          0.14
     42 H          -0.3269   -3.3880   -0.9525 H       1  LIG1          0.14
     43 H          -0.0862   -2.5488    0.5612 H       1  LIG1          0.14
     44 H          -2.1856   -3.8163    0.6123 H       1  LIG1       0.15000000000000002
     45 H          -2.4820   -2.1078    0.8190 H       1  LIG1       0.15000000000000002
     46 H          -4.1860   -3.1211   -0.6638 H       1  LIG1       0.15000000000000002
     47 H          -3.2952   -1.8531   -1.4836 H       1  LIG1       0.16000000000000003
     48 H          -2.0892   -5.5220   -1.0666 H       1  LIG1       0.17000000000000004
     49 H          -1.9081   -3.5579   -2.6569 H       1  LIG1       0.18000000000000005
     50 H          -4.3006   -4.4876   -3.3736 H       1  LIG1       0.42000000000000004
@<TRIPOS>BOND
     1    50    18    1
     2    18    16    1
     3    49    16    1
     4    17    15    2
     5    16    15    1
     6    16    14    1
     7    40    11    1
     8    15    48    1
     9    47    14    1
    10    41    11    1
    11    11    10    1
    12    11    12    1
    13    14    46    1
    14    14    13    1
    15    39    10    1
    16    32     7    1
    17    42    12    1
    18    10    38    1
    19    10     9    1
    20    31     6    1
    21    12    13    1
    22    12    43    1
    23    13    44    1
    24    13    45    1
    25     7    33    1
    26     7     6    1
    27     7     8    1
    28    30     6    1
    29     6     5    1
    30    24     3    1
    31    23     2    1
    32    22     2    1
    33    34     8    1
    34     9     8    1
    35     9    37    1
    36     9    36    1
    37     8    35    1
    38     2     3    1
    39     2     1    1
    40     3    25    1
    41     3     4    1
    42     5    29    1
    43     5     4    1
    44     5    28    1
    45    20     1    1
    46     4    26    1
    47     4    27    1
    48     1    21    1
    49     1    19    1
