@<TRIPOS>MOLECULE
BKKGUKSHPCTUGE-OOHFSOINSA-M	6044351	-928.770426373977
 50 50 0 0 0
SMALL
MULLIKEN NwChem

@<TRIPOS>ATOM
      1 C           4.5963    3.9937   -6.0857 C.3     1  LIG1      -0.4500000000000002
      2 C           4.2964    4.3932   -4.6304 C.3     1  LIG1      -0.2999999999999998
      3 C           3.0172    5.1788   -4.5101 C.2     1  LIG1      -0.1200000000000001
      4 C          -2.1411   -0.9768    0.9221 C.3     1  LIG1      -0.2599999999999998
      5 C          -1.7174   -2.4407    0.7080 C.3     1  LIG1      -0.2699999999999996
      6 C          -0.9790    0.0079    1.1920 C.3     1  LIG1      -0.3200000000000003
      7 C          -0.8756   -3.0525    1.8406 C.3     1  LIG1      -0.2699999999999996
      8 C           0.0683   -0.0021    0.1122 C.2     1  LIG1      -0.11000000000000032
      9 C          -1.5245   -3.0022    3.2350 C.3     1  LIG1      -0.2699999999999996
     10 C           1.9099    4.8580   -3.8311 C.2     1  LIG1      -0.1299999999999999
     11 C           0.2992    0.9307   -0.8202 C.2     1  LIG1      -0.13999999999999968
     12 C          -2.8935   -3.7026    3.3372 C.3     1  LIG1      -0.2599999999999998
     13 C           1.6704    3.6417   -2.9741 C.3     1  LIG1      -0.33999999999999986
     14 C          -0.4180    2.2476   -0.9910 C.3     1  LIG1      -0.34999999999999964
     15 C          -2.8892   -5.1355    2.7784 C.3     1  LIG1       -0.33999999999999986
     16 C           1.4561    4.0395   -1.5242 C.3     1  LIG1       0.08999999999999986
     17 C           0.4833    3.4094   -0.6150 C.3     1  LIG1       0.08000000000000007
     18 C          -1.6930   -5.9628    3.3750 C.2     1  LIG1       0.5300000000000002
     19 O          -1.6878   -6.0387    4.6308 O.co2   1  LIG1      -0.6899999999999995
     20 O          -0.8625   -6.4074    2.5398 O.co2   1  LIG1      -0.6799999999999997
     21 O           0.2166    4.6980   -1.2052 O.3     1  LIG1      -0.5199999999999996
     22 H           3.8126    3.3350   -6.4765 H       1  LIG1       0.15000000000000002
     23 H           5.5553    3.4684   -6.1637 H       1  LIG1       0.15000000000000002
     24 H           4.6416    4.8768   -6.7350 H       1  LIG1       0.15000000000000002
     25 H           4.2704    3.4957   -4.0030 H       1  LIG1       0.15000000000000002
     26 H           5.1282    5.0071   -4.2530 H       1  LIG1       0.15000000000000002
     27 H           3.0102    6.1148   -5.0725 H       1  LIG1          0.13
     28 H          -2.8356   -0.9204    1.7700 H       1  LIG1          0.14
     29 H          -2.6941   -0.6258    0.0387 H       1  LIG1          0.13
     30 H          -2.6259   -3.0407    0.5739 H       1  LIG1          0.14
     31 H          -1.1620   -2.5203   -0.2380 H       1  LIG1          0.13
     32 H          -0.5021   -0.2673    2.1419 H       1  LIG1       0.15000000000000002
     33 H          -1.3883    1.0158    1.3323 H       1  LIG1       0.15000000000000002
     34 H          -0.6646   -4.1037    1.6109 H       1  LIG1          0.13
     35 H           0.1012   -2.5447    1.8841 H       1  LIG1          0.13
     36 H           0.6858   -0.8995    0.0847 H       1  LIG1          0.14
     37 H          -0.8511   -3.5050    3.9380 H       1  LIG1          0.12
     38 H          -1.6214   -1.9581    3.5768 H       1  LIG1          0.13
     39 H           1.0711    5.5533   -3.8541 H       1  LIG1          0.14
     40 H           1.1062    0.7575   -1.5340 H       1  LIG1          0.14
     41 H          -3.1585   -3.7587    4.4000 H       1  LIG1          0.12
     42 H          -3.6682   -3.0937    2.8406 H       1  LIG1          0.13
     43 H           0.7835    3.1108   -3.3387 H       1  LIG1       0.16000000000000003
     44 H           2.5097    2.9386   -3.0219 H       1  LIG1       0.17000000000000004
     45 H          -1.3215    2.2940   -0.3739 H       1  LIG1       0.17000000000000004
     46 H          -0.7469    2.3737   -2.0298 H       1  LIG1       0.16000000000000003
     47 H          -3.8384   -5.6200    3.0523 H       1  LIG1          0.12
     48 H          -2.8234   -5.1322    1.6826 H       1  LIG1          0.12
     49 H           2.3303    4.5171   -1.0717 H       1  LIG1       0.16000000000000003
     50 H           0.7170    3.4541    0.4523 H       1  LIG1       0.16000000000000003
@<TRIPOS>BOND
     1    24     1    1
     2    22     1    1
     3    23     1    1
     4     1     2    1
     5    27     3    1
     6     2     3    1
     7     2    26    1
     8     2    25    1
     9     3    10    2
    10    39    10    1
    11    10    13    1
    12    43    13    1
    13    44    13    1
    14    13    16    1
    15    46    14    1
    16    40    11    1
    17    16    21    1
    18    16    49    1
    19    16    17    1
    20    21    17    1
    21    14    11    1
    22    14    17    1
    23    14    45    1
    24    11     8    2
    25    17    50    1
    26    31     5    1
    27    29     4    1
    28    36     8    1
    29     8     6    1
    30    30     5    1
    31     5     4    1
    32     5     7    1
    33     4     6    1
    34     4    28    1
    35     6    33    1
    36     6    32    1
    37    34     7    1
    38    48    15    1
    39     7    35    1
    40     7     9    1
    41    20    18   ar
    42    15    47    1
    43    15    12    1
    44    15    18    1
    45    42    12    1
    46     9    12    1
    47     9    38    1
    48     9    37    1
    49    12    41    1
    50    18    19   ar
