@<TRIPOS>MOLECULE
BKUSIKGSPSFQAC-RRKCRQDMSA-K	11152731	-2042.0883019525775
 37 39 0 0 0
SMALL
MULLIKEN NwChem

@<TRIPOS>ATOM
      1 C          -0.4872   -1.8676    0.3172 C.3     1  LIG1       -0.33999999999999986
      2 C           0.9067    1.4999   -0.5798 C.3     1  LIG1       -0.11000000000000032
      3 C          -5.3491   -2.8540    1.5092 C.ar    1  LIG1       0.1299999999999999
      4 C          -3.0667   -0.3467   -1.2161 C.ar    1  LIG1       0.1900000000000004
      5 C           0.5397   -1.0434   -0.4688 C.3     1  LIG1       0.1200000000000001
      6 C           0.4532    0.3105    0.2625 C.3     1  LIG1       0.1200000000000001
      7 C          -1.5400   -0.8352    0.7747 C.3     1  LIG1       0.28000000000000025
      8 C          -4.8355   -1.4299   -0.6733 C.ar    1  LIG1       0.09999999999999964
      9 C          -3.9311   -1.6024    0.3801 C.ar    1  LIG1       0.4900000000000002
     10 C          -6.1443   -2.0642   -0.5768 C.ar    1  LIG1       0.4500000000000002
     11 N          -4.1170   -2.3128    1.5160 N.ar    1  LIG1      -0.5800000000000001
     12 N          -6.3278   -2.7971    0.6108 N.ar    1  LIG1      -0.5800000000000001
     13 N          -4.2687   -0.6323   -1.6663 N.ar    1  LIG1      -0.5899999999999999
     14 N          -2.7936   -0.8942    0.0218 N.ar    1  LIG1         -0.5
     15 O           1.7936   -1.6631   -0.4396 O.3     1  LIG1      -0.7300000000000004
     16 O          -7.0432   -1.9932   -1.4369 O.2     1  LIG1      -0.6799999999999997
     17 O           3.5289   -0.0078   -1.5969 O.3     1  LIG1      -0.7100000000000009
     18 O           5.7334    1.3509   -1.9055 O.2     1  LIG1      -0.6699999999999999
     19 O           5.1051    0.4268    0.4163 O.3     1  LIG1      -0.7599999999999998
     20 O           3.0658    1.4975    1.7277 O.3     1  LIG1      -0.7400000000000002
     21 O           3.1068    4.0869    1.2270 O.2     1  LIG1      -0.6600000000000001
     22 O           1.3228    2.6360    0.1745 O.3     1  LIG1      -0.5800000000000001
     23 O          -0.9564    0.4461    0.6035 O.3     1  LIG1      -0.5500000000000007
     24 O           3.7627    2.3643   -0.5863 O.3     1  LIG1      -0.6899999999999995
     25 P           4.5755    0.9564   -1.0366 P.3     1  LIG1       1.0899999999999999
     26 P           2.8776    2.6772    0.7764 P.3     1  LIG1       1.1400000000000006
     27 H           0.0341   -2.2856    1.1863 H       1  LIG1       0.17000000000000004
     28 H          -0.9400   -2.6892   -0.2449 H       1  LIG1       0.18000000000000005
     29 H           1.7135    1.1697   -1.2429 H       1  LIG1       0.18999999999999995
     30 H           0.0540    1.8202   -1.1957 H       1  LIG1       0.16000000000000003
     31 H          -5.5782   -3.4472    2.4055 H       1  LIG1          0.13
     32 H          -2.3331    0.2783   -1.7071 H       1  LIG1       0.18999999999999995
     33 H           0.1765   -0.8949   -1.5068 H       1  LIG1          0.13
     34 H           1.0641    0.2646    1.1717 H       1  LIG1       0.15000000000000002
     35 H          -1.8330   -0.9990    1.8193 H       1  LIG1       0.17000000000000004
     36 H           2.4798   -1.0394   -0.8307 H       1  LIG1       0.44999999999999996
     37 H           4.3846    0.6592    1.0745 H       1  LIG1       0.44999999999999996
@<TRIPOS>BOND
     1    18    25    2
     2    32     4    1
     3    13     4   ar
     4    13     8   ar
     5    17    25    1
     6    33     5    1
     7    16    10    2
     8    29     2    1
     9     4    14   ar
    10    30     2    1
    11    25    24    1
    12    25    19    1
    13    36    15    1
    14     8    10   ar
    15     8     9   ar
    16    24    26    1
    17     2    22    1
    18     2     6    1
    19    10    12   ar
    20     5    15    1
    21     5     6    1
    22     5     1    1
    23    28     1    1
    24    14     9   ar
    25    14     7    1
    26    22    26    1
    27     6    23    1
    28     6    34    1
    29     1     7    1
    30     1    27    1
    31     9    11   ar
    32    19    37    1
    33    23     7    1
    34    12     3   ar
    35     7    35    1
    36    26    21    2
    37    26    20    1
    38     3    11   ar
    39     3    31    1
