@<TRIPOS>MOLECULE
BLKFNHOCHNCLII-GHVQHMAVSA-J	11152730	-2669.420289286106
 58 59 0 0 0
SMALL
MULLIKEN NwChem

@<TRIPOS>ATOM
      1 C           2.8459   -0.7854   -0.0576 C.3     1  LIG1       -0.2599999999999998
      2 C           7.4120   -1.2491    0.4258 C.3     1  LIG1       -0.05999999999999961
      3 C          -6.4976    2.0369    0.7207 C.3     1  LIG1       -0.040000000000000036
      4 C           0.5182   -0.8039   -0.3236 C.2     1  LIG1       0.2599999999999998
      5 C          -3.0227   -0.5594    2.7062 C.ar    1  LIG1       0.20000000000000018
      6 C           3.6454   -2.0655    0.0487 C.2     1  LIG1       0.4299999999999997
      7 C           5.8940   -1.0613    0.7123 C.3     1  LIG1       0.17999999999999972
      8 C          -5.1188    1.8344    0.0873 C.3     1  LIG1       0.11000000000000032
      9 C          -1.3461   -1.8682    2.3633 C.ar    1  LIG1       0.13999999999999968
     10 C           5.1013   -2.0307   -0.3232 C.3     1  LIG1       0.040000000000000036
     11 C          -5.0662    0.8032   -1.0743 C.3     1  LIG1       0.15000000000000036
     12 C          -3.8453   -0.1267   -0.6670 C.3     1  LIG1       0.07000000000000028
     13 C          -0.5086   -3.0689    2.6568 C.2     1  LIG1       0.5199999999999996
     14 C          -1.4478   -1.0501    1.2310 C.ar    1  LIG1       0.46999999999999975
     15 C          -3.1888    0.6514    0.4914 C.3     1  LIG1       0.29000000000000004
     16 N           0.5697   -3.2553    1.8511 N.am    1  LIG1      -0.8099999999999996
     17 N           1.4996   -0.9062    0.4854 N.2     1  LIG1      -0.4800000000000004
     18 N          -0.8214   -0.9553   -0.0215 N.pl3   1  LIG1      -0.7400000000000002
     19 N          -2.3327   -1.5205    3.2729 N.ar    1  LIG1      -0.5700000000000003
     20 N          -2.5342   -0.2200    1.4761 N.ar    1  LIG1      -0.45999999999999996
     21 O           3.1684   -3.1115    0.5168 O.2     1  LIG1      -0.5500000000000007
     22 O           5.4636    0.2074    0.6584 O.3     1  LIG1      -0.7400000000000002
     23 O           5.5935   -3.3707   -0.3218 O.3     1  LIG1      -0.6999999999999993
     24 O          -4.7765    1.3440   -2.2969 O.3     1  LIG1      -0.7899999999999991
     25 O          -3.0213   -0.2395   -1.7951 O.3     1  LIG1      -0.7200000000000006
     26 O          -0.8308   -3.8760    3.5380 O.2     1  LIG1      -0.6099999999999994
     27 O           9.3788    0.9851    0.0698 O.3     1  LIG1      -0.7300000000000004
     28 O           7.0678    1.5904   -0.9729 O.3     1  LIG1      -0.7799999999999994
     29 O           8.9556    0.7484   -2.5111 O.2     1  LIG1      -0.7100000000000009
     30 O          -6.6443    4.5728   -0.5945 O.3     1  LIG1      -0.7300000000000004
     31 O          -9.0469    3.8706   -1.4332 O.2     1  LIG1      -0.6999999999999993
     32 O          -6.9933    2.9511   -2.6141 O.3     1  LIG1      -0.7699999999999996
     33 O           7.8005   -0.8488   -0.8780 O.3     1  LIG1      -0.6099999999999994
     34 O          -7.5323    2.1766   -0.2297 O.3     1  LIG1      -0.6099999999999994
     35 O          -4.2163    1.3581    1.1391 O.3     1  LIG1      -0.5600000000000005
     36 P           8.4425    0.7096   -1.0918 P.3     1  LIG1       1.0099999999999998
     37 P          -7.5873    3.5677   -1.2176 P.3     1  LIG1       1.0500000000000007
     38 H           2.8583   -0.4589   -1.1136 H       1  LIG1       0.17000000000000004
     39 H           3.4882   -0.0434    0.4717 H       1  LIG1       0.20999999999999996
     40 H           7.9596   -0.6634    1.1775 H       1  LIG1          0.12
     41 H           7.6708   -2.3125    0.5447 H       1  LIG1          0.12
     42 H          -6.7255    1.1349    1.3110 H       1  LIG1          0.14
     43 H          -6.4594    2.8992    1.4017 H       1  LIG1          0.14
     44 H           0.6495   -0.5998   -1.3974 H       1  LIG1       0.18000000000000005
     45 H          -3.8860   -0.0544    3.1127 H       1  LIG1       0.19999999999999996
     46 H           5.7349   -1.5707    1.7104 H       1  LIG1       0.040000000000000036
     47 H          -4.7426    2.7881   -0.2984 H       1  LIG1          0.13
     48 H           5.2821   -1.5692   -1.3001 H       1  LIG1          0.14
     49 H          -6.0008    0.2053   -1.0594 H       1  LIG1       0.08999999999999997
     50 H          -4.1635   -1.1128   -0.2960 H       1  LIG1          0.14
     51 H          -2.4252    1.3269    0.0731 H       1  LIG1       0.17000000000000004
     52 H           1.1857   -4.0128    2.1108 H       1  LIG1          0.35
     53 H           1.0404   -2.4615    1.4024 H       1  LIG1           0.4
     54 H          -1.4556   -0.7406   -0.8012 H       1  LIG1           0.4
     55 H           6.4224    1.1076   -0.3537 H       1  LIG1       0.42000000000000004
     56 H           4.8809   -3.8506    0.1477 H       1  LIG1       0.41000000000000003
     57 H          -6.1346    2.4484   -2.5011 H       1  LIG1       0.43999999999999995
     58 H          -3.5429    0.4877   -2.3753 H       1  LIG1            0.4
@<TRIPOS>BOND
     1    32    57    1
     2    32    37    1
     3    29    36    2
     4    58    25    1
     5    24    11    1
     6    25    12    1
     7    31    37    2
     8    44     4    1
     9    48    10    1
    10    37    30    1
    11    37    34    1
    12    38     1    1
    13    36    28    1
    14    36    33    1
    15    36    27    1
    16    11    49    1
    17    11    12    1
    18    11     8    1
    19    28    55    1
    20    33     2    1
    21    54    18    1
    22    12    50    1
    23    12    15    1
    24     4    18    1
    25     4    17    2
    26    10    23    1
    27    10     6    1
    28    10     7    1
    29    23    56    1
    30    47     8    1
    31    34     3    1
    32     1     6    1
    33     1    39    1
    34     1    17    1
    35    18    14    1
    36     6    21    2
    37    51    15    1
    38     8     3    1
    39     8    35    1
    40     2    41    1
    41     2     7    1
    42     2    40    1
    43    15    35    1
    44    15    20    1
    45    22     7    1
    46     7    46    1
    47     3    42    1
    48     3    43    1
    49    14    20   ar
    50    14     9   ar
    51    53    16    1
    52    20     5   ar
    53    16    52    1
    54    16    13   am
    55     9    13    1
    56     9    19   ar
    57    13    26    2
    58     5    45    1
    59     5    19   ar
