@<TRIPOS>MOLECULE
BNWKMHUFFKDAMV-UHFFFAOYSA-M	6044356	-696.6751879690793
 38 37 0 0 0
SMALL
MULLIKEN NwChem

@<TRIPOS>ATOM
      1 C           2.6398   -1.9852   -4.7224 C.3     1  LIG1      -0.45999999999999996
      2 C           2.5884   -2.4901   -3.2757 C.3     1  LIG1      -0.2599999999999998
      3 C           2.9341   -1.4187   -2.2283 C.3     1  LIG1      -0.2599999999999998
      4 C          -1.3599    1.2415    0.6865 C.3     1  LIG1      -0.29000000000000004
      5 C           2.0224   -0.1771   -2.2315 C.3     1  LIG1      -0.2699999999999996
      6 C           0.1388    0.8876    0.6901 C.3     1  LIG1      -0.28000000000000025
      7 C          -2.2208    0.4657    1.7045 C.3     1  LIG1      -0.2699999999999996
      8 C           0.5195   -0.4692   -2.0872 C.3     1  LIG1      -0.29000000000000004
      9 C           0.5138   -0.5936    0.4975 C.3     1  LIG1      -0.2999999999999998
     10 C          -1.6951    0.5445    3.1495 C.3     1  LIG1       -0.33000000000000007
     11 C           0.1166   -1.2628   -0.8323 C.3     1  LIG1       0.1299999999999999
     12 C          -1.5252    2.0438    3.5810 C.2     1  LIG1       0.5199999999999996
     13 O          -1.2803   -1.5839   -0.8965 O.3     1  LIG1      -0.6999999999999993
     14 O          -2.5689    2.6015    3.9965 O.co2   1  LIG1      -0.6899999999999995
     15 O          -0.3755    2.5320    3.3900 O.co2   1  LIG1      -0.6699999999999999
     16 H           1.8868   -1.2100   -4.9029 H       1  LIG1       0.15000000000000002
     17 H           2.4544   -2.7982   -5.4347 H       1  LIG1          0.14
     18 H           3.6221   -1.5530   -4.9545 H       1  LIG1          0.14
     19 H           1.5904   -2.8975   -3.0691 H       1  LIG1          0.14
     20 H           3.2882   -3.3301   -3.1625 H       1  LIG1          0.13
     21 H           2.9121   -1.8812   -1.2328 H       1  LIG1          0.14
     22 H           3.9722   -1.0902   -2.3864 H       1  LIG1          0.13
     23 H          -1.4302    2.3072    0.9281 H       1  LIG1          0.14
     24 H          -1.7891    1.1311   -0.3271 H       1  LIG1          0.13
     25 H           2.3418    0.4880   -1.4199 H       1  LIG1          0.14
     26 H           2.1817    0.3872   -3.1608 H       1  LIG1          0.14
     27 H           0.5215    1.2358    1.6566 H       1  LIG1       0.15000000000000002
     28 H           0.6443    1.4933   -0.0768 H       1  LIG1          0.13
     29 H          -3.2321    0.8941    1.6912 H       1  LIG1          0.12
     30 H          -2.3163   -0.5863    1.3904 H       1  LIG1          0.12
     31 H          -0.0283    0.4819   -2.0870 H       1  LIG1          0.14
     32 H           0.1556   -1.0297   -2.9583 H       1  LIG1          0.14
     33 H           0.0778   -1.1948    1.3044 H       1  LIG1          0.14
     34 H           1.6050   -0.6860    0.6057 H       1  LIG1          0.14
     35 H          -2.4172    0.0464    3.8101 H       1  LIG1       0.10999999999999999
     36 H          -0.7346    0.0184    3.2323 H       1  LIG1          0.12
     37 H           0.6065   -2.2455   -0.8719 H       1  LIG1          0.13
     38 H          -1.7657   -0.7827   -0.6491 H       1  LIG1       0.43000000000000005
@<TRIPOS>BOND
     1    17     1    1
     2    18     1    1
     3    16     1    1
     4     1     2    1
     5     2    20    1
     6     2    19    1
     7     2     3    1
     8    26     5    1
     9    32     8    1
    10    22     3    1
    11     5     3    1
    12     5     8    1
    13     5    25    1
    14     3    21    1
    15     8    31    1
    16     8    11    1
    17    13    11    1
    18    13    38    1
    19    37    11    1
    20    11     9    1
    21    24     4    1
    22    28     6    1
    23     9    34    1
    24     9     6    1
    25     9    33    1
    26     4     6    1
    27     4    23    1
    28     4     7    1
    29     6    27    1
    30    30     7    1
    31    29     7    1
    32     7    10    1
    33    10    36    1
    34    10    12    1
    35    10    35    1
    36    15    12   ar
    37    12    14   ar
