@<TRIPOS>MOLECULE
BOPGDPNILDQYTO-NNYOXOHSSA-L	11152728	-2935.57511611745
 71 75 0 0 0
SMALL
MULLIKEN NwChem

@<TRIPOS>ATOM
      1 C          -9.1103   -0.5254    1.0001 C.2     1  LIG1      -0.20999999999999996
      2 C          -9.7461   -0.2247   -0.3319 C.3     1  LIG1      -0.33000000000000007
      3 C          -7.8145   -0.2926    1.2596 C.2     1  LIG1      0.04999999999999982
      4 C          -7.5220    0.7424   -0.8805 C.2     1  LIG1       -0.040000000000000036
      5 C          -3.4786   -0.6234   -0.7868 C.3     1  LIG1       -0.08000000000000007
      6 C           2.3802    1.0172    0.1340 C.3     1  LIG1       -0.08999999999999986
      7 C           9.7611   -0.5161   -1.4026 C.ar    1  LIG1       0.15000000000000036
      8 C           6.2609    1.7784   -0.2302 C.ar    1  LIG1       0.21999999999999975
      9 C          -8.8116    0.5760   -1.2155 C.2     1  LIG1       0.009999999999999787
     10 C          -3.5771    0.6542    0.0576 C.3     1  LIG1       0.08999999999999986
     11 C           3.2150   -0.2661    0.0521 C.3     1  LIG1       0.08999999999999986
     12 C           8.3388    1.5918   -0.6142 C.ar    1  LIG1       0.1900000000000004
     13 C          -3.5183    0.4012    1.5639 C.3     1  LIG1       0.05999999999999961
     14 C           4.0236   -0.6084    1.3199 C.3     1  LIG1       0.08999999999999986
     15 C          -4.9981    0.1388    1.9140 C.3     1  LIG1       0.05999999999999961
     16 C           5.2566   -1.3231    0.7155 C.3     1  LIG1       0.08999999999999986
     17 C           9.7220    1.7178   -0.8371 C.ar    1  LIG1       0.45999999999999996
     18 C          -9.4032    1.0256   -2.5693 C.2     1  LIG1       0.41999999999999993
     19 C           7.7941    0.3185   -0.8337 C.ar    1  LIG1          0.54
     20 C          -5.7760    0.9619    0.8498 C.3     1  LIG1       0.29000000000000004
     21 C           5.4374   -0.6140   -0.6353 C.3     1  LIG1       0.2599999999999998
     22 N          10.3814    2.8986   -0.6245 N.pl3   1  LIG1      -0.7800000000000002
     23 N          -8.9874    2.1407   -3.1491 N.am    1  LIG1      -0.8399999999999999
     24 N          10.4240    0.6452   -1.2404 N.ar    1  LIG1      -0.5499999999999998
     25 N           8.4643   -0.7760   -1.2243 N.ar    1  LIG1      -0.5499999999999998
     26 N           7.3630    2.4970   -0.2386 N.ar    1  LIG1      -0.5800000000000001
     27 N          -6.9179    0.2252    0.3103 N.pl3   1  LIG1         -0.5
     28 N           6.4477    0.4567   -0.5790 N.ar    1  LIG1      -0.5099999999999998
     29 O          -3.1137    1.5564    2.2845 O.3     1  LIG1      -0.7200000000000006
     30 O           3.4028   -1.4963    2.2177 O.3     1  LIG1      -0.7200000000000006
     31 O          -5.2879    0.4791    3.2526 O.3     1  LIG1      -0.6899999999999995
     32 O           4.9339   -2.6741    0.4772 O.3     1  LIG1      -0.6899999999999995
     33 O         -10.2830    0.2278   -3.0123 O.2     1  LIG1      -0.7200000000000006
     34 O          -0.7655   -0.3547   -2.3544 O.2     1  LIG1      -0.5999999999999996
     35 O           0.1033   -2.1180   -0.6294 O.3     1  LIG1      -0.6899999999999995
     36 O           0.7958   -1.2822    1.7306 O.2     1  LIG1        -0.75
     37 O          -0.5248    0.7950    2.6603 O.3     1  LIG1      -0.6300000000000008
     38 O          -2.2818   -1.3909   -0.4870 O.3     1  LIG1      -0.5299999999999994
     39 O           1.6077    1.1225    1.3298 O.3     1  LIG1      -0.5500000000000007
     40 O          -4.8480    1.2577   -0.1975 O.3     1  LIG1      -0.5399999999999991
     41 O           4.1982   -0.0424   -0.9857 O.3     1  LIG1      -0.5399999999999991
     42 O          -0.4396    0.2695    0.1225 O.3     1  LIG1      -0.6699999999999999
     43 P          -0.8372   -0.8814   -0.9770 P.3     1  LIG1       1.2400000000000002
     44 P           0.3091    0.1652    1.5979 P.3     1  LIG1       1.2599999999999998
     45 H          -9.7165   -0.9656    1.7916 H       1  LIG1          0.13
     46 H         -10.0449   -1.1326   -0.8797 H       1  LIG1          0.13
     47 H         -10.6933    0.3257   -0.2029 H       1  LIG1          0.14
     48 H          -7.3896   -0.4947    2.2375 H       1  LIG1       0.17000000000000004
     49 H          -6.8255    1.2481   -1.5377 H       1  LIG1       0.15000000000000002
     50 H          -3.5036   -0.3739   -1.8511 H       1  LIG1       0.18999999999999995
     51 H          -4.3159   -1.2870   -0.5605 H       1  LIG1       0.18999999999999995
     52 H           3.0642    1.8719    0.1553 H       1  LIG1       0.18999999999999995
     53 H           1.7403    1.1108   -0.7501 H       1  LIG1       0.18999999999999995
     54 H          10.3726   -1.3558   -1.7282 H       1  LIG1       0.17000000000000004
     55 H           5.2743    2.1511    0.0004 H       1  LIG1       0.20999999999999996
     56 H          -2.8006    1.3664   -0.2359 H       1  LIG1       0.18000000000000005
     57 H           2.5937   -1.1223   -0.2285 H       1  LIG1       0.17000000000000004
     58 H          -2.8794   -0.4509    1.8157 H       1  LIG1       0.18000000000000005
     59 H           4.3273    0.3217    1.8256 H       1  LIG1       0.16000000000000003
     60 H          -5.2278   -0.9224    1.7702 H       1  LIG1       0.18000000000000005
     61 H           6.1577   -1.2274    1.3393 H       1  LIG1       0.17000000000000004
     62 H          -6.0887    1.9255    1.2849 H       1  LIG1       0.15000000000000002
     63 H           5.7782   -1.3227   -1.3952 H       1  LIG1       0.18999999999999995
     64 H          11.2881    2.9828   -1.0626 H       1  LIG1          0.37
     65 H           9.8106    3.7322   -0.5894 H       1  LIG1          0.37
     66 H          -8.3199    2.5928   -2.5133 H       1  LIG1          0.25
     67 H          -2.1561    1.4337    2.4825 H       1  LIG1       0.45999999999999996
     68 H           2.4125   -1.4137    2.1392 H       1  LIG1          0.47
     69 H          -4.6176    1.1643    3.4533 H       1  LIG1       0.43000000000000005
     70 H           4.2350   -2.8571    1.1417 H       1  LIG1       0.43000000000000005
     71 H           0.3956   -2.0542    0.3330 H       1  LIG1           0.49
@<TRIPOS>BOND
     1    23    18   am
     2    23    66    1
     3    33    18    2
     4    18     9    1
     5    34    43    2
     6    50     5    1
     7    54     7    1
     8    49     4    1
     9     7    24   ar
    10     7    25   ar
    11    63    21    1
    12    24    17   ar
    13    25    19   ar
    14     9     4    2
    15     9     2    1
    16    64    22    1
    17    41    21    1
    18    41    11    1
    19    43    35    1
    20    43    38    1
    21    43    42    1
    22     4    27    1
    23    46     2    1
    24    17    22    1
    25    17    12   ar
    26    19    12   ar
    27    19    28   ar
    28     5    51    1
    29     5    38    1
    30     5    10    1
    31    53     6    1
    32    21    28    1
    33    21    16    1
    34    35    71    1
    35    22    65    1
    36    12    26   ar
    37    28     8   ar
    38     2    47    1
    39     2     1    1
    40    26     8   ar
    41    56    10    1
    42     8    55    1
    43    57    11    1
    44    40    10    1
    45    40    20    1
    46    11     6    1
    47    11    14    1
    48    10    13    1
    49    42    44    1
    50     6    52    1
    51     6    39    1
    52    27    20    1
    53    27     3    1
    54    32    16    1
    55    32    70    1
    56    16    14    1
    57    16    61    1
    58    20    62    1
    59    20    15    1
    60     1     3    2
    61     1    45    1
    62     3    48    1
    63    14    59    1
    64    14    30    1
    65    39    44    1
    66    13    58    1
    67    13    15    1
    68    13    29    1
    69    44    36    2
    70    44    37    1
    71    60    15    1
    72    15    31    1
    73    68    30    1
    74    29    67    1
    75    31    69    1
