@<TRIPOS>MOLECULE
BOTWFXYSPFMFNR-PYDDKJGSSA-N	6044358	-860.9762717388938
 61 60 0 0 0
SMALL
MULLIKEN NwChem

@<TRIPOS>ATOM
      1 C          -3.0180    1.1273   -3.4544 C.3     1  LIG1      -0.45999999999999996
      2 C          -2.3075   -1.2376   -2.9466 C.3     1  LIG1      -0.45999999999999996
      3 C           2.2822    1.7786   -1.4159 C.3     1  LIG1      -0.46999999999999975
      4 C          -0.1299    1.1933    3.5367 C.3     1  LIG1      -0.46999999999999975
      5 C           0.2901   -3.9465    1.6995 C.3     1  LIG1        -0.54
      6 C          -0.0534    1.9544   -3.4334 C.3     1  LIG1      -0.28000000000000025
      7 C          -0.5988    2.9251    1.0081 C.3     1  LIG1      -0.28000000000000025
      8 C          -1.6318   -1.5331    1.1312 C.3     1  LIG1      -0.28000000000000025
      9 C          -0.5373    0.4943   -3.4248 C.3     1  LIG1      -0.2599999999999998
     10 C          -0.0303    2.6494   -2.0612 C.3     1  LIG1      -0.2699999999999996
     11 C           0.7835    2.7718    0.3486 C.3     1  LIG1      -0.2699999999999996
     12 C          -1.3197    1.6010    1.3206 C.3     1  LIG1      -0.28000000000000025
     13 C          -1.3059   -0.7155    2.3929 C.3     1  LIG1      -0.2599999999999998
     14 C          -0.3986   -1.9351    0.2899 C.3     1  LIG1      -0.3700000000000001
     15 C           1.9114   -2.0758    1.1873 C.2     1  LIG1      -0.2400000000000002
     16 C           3.1204   -2.6034    1.9074 C.3     1  LIG1       -0.08000000000000007
     17 C          -1.9330    0.2460   -2.8186 C.3     1  LIG1      -0.08000000000000007
     18 C           0.8254    1.9737   -0.9716 C.3     1  LIG1      -0.08999999999999986
     19 C          -0.5257    0.5968    2.1776 C.3     1  LIG1      -0.07000000000000028
     20 C           0.6943   -2.6321    1.0744 C.2     1  LIG1      0.20000000000000018
     21 O           4.2925   -2.5331    1.0898 O.3     1  LIG1      -0.6699999999999999
     22 H          -3.0523    0.9766   -4.5415 H       1  LIG1          0.14
     23 H          -2.8432    2.1926   -3.2711 H       1  LIG1       0.15000000000000002
     24 H          -4.0079    0.8804   -3.0526 H       1  LIG1          0.14
     25 H          -2.4316   -1.5161   -4.0011 H       1  LIG1          0.14
     26 H          -1.5305   -1.8831   -2.5227 H       1  LIG1       0.15000000000000002
     27 H          -3.2497   -1.4583   -2.4308 H       1  LIG1          0.14
     28 H           2.7474    2.7421   -1.6629 H       1  LIG1          0.14
     29 H           2.8767    1.3176   -0.6178 H       1  LIG1          0.14
     30 H           2.3598    1.1346   -2.2980 H       1  LIG1       0.15000000000000002
     31 H          -1.0199    1.4905    4.1074 H       1  LIG1          0.14
     32 H           0.4235    0.4615    4.1372 H       1  LIG1          0.14
     33 H           0.5067    2.0776    3.4263 H       1  LIG1       0.15000000000000002
     34 H           1.1329   -4.5070    2.1120 H       1  LIG1       0.17000000000000004
     35 H          -0.4288   -3.7889    2.5147 H       1  LIG1       0.17000000000000004
     36 H          -0.2130   -4.5818    0.9581 H       1  LIG1       0.16000000000000003
     37 H           0.9489    1.9853   -3.8787 H       1  LIG1          0.13
     38 H          -0.6908    2.5429   -4.1060 H       1  LIG1          0.13
     39 H          -0.4765    3.5041    1.9324 H       1  LIG1          0.13
     40 H          -1.2512    3.5322    0.3675 H       1  LIG1          0.13
     41 H          -2.1713   -2.4393    1.4374 H       1  LIG1          0.14
     42 H          -2.3232   -0.9818    0.4812 H       1  LIG1       0.15000000000000002
     43 H           0.1891   -0.1287   -2.8841 H       1  LIG1          0.14
     44 H          -0.5383    0.1238   -4.4610 H       1  LIG1          0.12
     45 H           0.3340    3.6787   -2.1978 H       1  LIG1          0.12
     46 H          -1.0609    2.7414   -1.6973 H       1  LIG1       0.15000000000000002
     47 H           1.4686    2.2959    1.0632 H       1  LIG1          0.13
     48 H           1.1973    3.7737    0.1615 H       1  LIG1          0.12
     49 H          -2.2666    1.8272    1.8337 H       1  LIG1          0.12
     50 H          -1.6003    1.1224    0.3744 H       1  LIG1       0.16000000000000003
     51 H          -0.7215   -1.3487    3.0750 H       1  LIG1          0.13
     52 H          -2.2454   -0.4873    2.9189 H       1  LIG1          0.12
     53 H          -0.7423   -2.6046   -0.5117 H       1  LIG1       0.15000000000000002
     54 H           0.0126   -1.0491   -0.2055 H       1  LIG1       0.17000000000000004
     55 H           2.0938   -1.1186    0.6958 H       1  LIG1          0.14
     56 H           3.3485   -1.9747    2.7773 H       1  LIG1       0.16000000000000003
     57 H           2.9624   -3.6249    2.2846 H       1  LIG1       0.15000000000000002
     58 H          -1.8873    0.4877   -1.7465 H       1  LIG1       0.15000000000000002
     59 H           0.4047    0.9775   -0.7784 H       1  LIG1       0.15000000000000002
     60 H           0.4016    0.3458    1.6479 H       1  LIG1          0.14
     61 H           4.0870   -2.9988    0.2637 H       1  LIG1       0.42000000000000004
@<TRIPOS>BOND
     1    22     1    1
     2    44     9    1
     3    38     6    1
     4    25     2    1
     5    37     6    1
     6     1    23    1
     7     1    24    1
     8     1    17    1
     9     6     9    1
    10     6    10    1
    11     9    43    1
    12     9    17    1
    13     2    17    1
    14     2    26    1
    15     2    27    1
    16    17    58    1
    17    30     3    1
    18    45    10    1
    19    10    46    1
    20    10    18    1
    21    28     3    1
    22     3    18    1
    23     3    29    1
    24    18    59    1
    25    18    11    1
    26    53    14    1
    27    54    14    1
    28    48    11    1
    29    61    21    1
    30    14    20    1
    31    14     8    1
    32    11     7    1
    33    11    47    1
    34    40     7    1
    35    50    12    1
    36    42     8    1
    37    55    15    1
    38    36     5    1
    39     7    12    1
    40     7    39    1
    41    20    15    2
    42    20     5    1
    43    21    16    1
    44     8    41    1
    45     8    13    1
    46    15    16    1
    47    12    49    1
    48    12    19    1
    49    60    19    1
    50     5    34    1
    51     5    35    1
    52    16    57    1
    53    16    56    1
    54    19    13    1
    55    19     4    1
    56    13    52    1
    57    13    51    1
    58    33     4    1
    59     4    31    1
    60     4    32    1
