@<TRIPOS>MOLECULE
BRGMHAYQAZFZDJ-KEWYIRBNSA-L	11152727	-1386.5563233758737
 33 33 0 0 0
SMALL
MULLIKEN NwChem

@<TRIPOS>ATOM
      1 C           5.5741    1.1893    0.9328 C.3     1  LIG1       -0.5199999999999996
      2 C          -1.8696   -0.9485    0.7278 C.3     1  LIG1       -0.07000000000000028
      3 C           4.4046    0.3856    0.3454 C.2     1  LIG1           0.5
      4 C          -0.4461   -0.6469    1.1805 C.3     1  LIG1       0.08999999999999986
      5 C           2.1103    0.2072   -0.1054 C.3     1  LIG1       -0.03000000000000025
      6 C          -0.0149    0.8605    1.0980 C.3     1  LIG1       0.08000000000000007
      7 C           0.8430    1.1105   -0.1536 C.3     1  LIG1       0.1200000000000001
      8 C           1.7989   -1.1222    0.6291 C.3     1  LIG1       0.3799999999999999
      9 N           3.2213    0.9266    0.5156 N.am    1  LIG1      -0.5999999999999996
     10 O           4.7378   -0.7089   -0.2431 O.2     1  LIG1      -0.7100000000000009
     11 O          -1.0893    1.7574    1.2979 O.3     1  LIG1      -0.7200000000000006
     12 O           0.1074    0.9893   -1.3671 O.3     1  LIG1      -0.7100000000000009
     13 O           2.5713   -2.1865    0.1773 O.3     1  LIG1      -0.7300000000000004
     14 O          -3.3857    1.4871   -0.2680 O.3     1  LIG1      -0.7100000000000009
     15 O          -4.6309   -0.7349   -0.4635 O.3     1  LIG1      -0.7300000000000004
     16 O          -3.4966    0.1666   -2.5873 O.2     1  LIG1      -0.6799999999999997
     17 O          -2.0686   -0.6887   -0.6636 O.3     1  LIG1      -0.5999999999999996
     18 O           0.4274   -1.4897    0.4369 O.3     1  LIG1      -0.5399999999999991
     19 P          -3.4036    0.2277   -1.0940 P.3     1  LIG1       1.0999999999999996
     20 H           6.1178    0.5767    1.6668 H       1  LIG1       0.15000000000000002
     21 H           6.2912    1.4328    0.1355 H       1  LIG1       0.15000000000000002
     22 H           5.2306    2.1130    1.4094 H       1  LIG1          0.14
     23 H          -2.5573   -0.3543    1.3371 H       1  LIG1       0.16000000000000003
     24 H          -2.0657   -2.0150    0.9066 H       1  LIG1       0.16000000000000003
     25 H          -0.4120   -0.9399    2.2518 H       1  LIG1          0.14
     26 H           2.3274   -0.0720   -1.1496 H       1  LIG1       0.09999999999999998
     27 H           0.6659    1.0436    1.9407 H       1  LIG1          0.14
     28 H           1.1877    2.1495   -0.1170 H       1  LIG1          0.12
     29 H           1.9509   -0.9620    1.7211 H       1  LIG1       0.08999999999999997
     30 H          -1.7451    1.6875    0.5623 H       1  LIG1       0.43000000000000005
     31 H          -0.4358    0.1800   -1.3176 H       1  LIG1       0.43000000000000005
     32 H           3.4388   -1.7549   -0.0941 H       1  LIG1       0.42000000000000004
     33 H          -4.7975   -1.3853   -1.1634 H       1  LIG1       0.43999999999999995
@<TRIPOS>BOND
     1    16    19    2
     2    12    31    1
     3    12     7    1
     4    33    15    1
     5    26     5    1
     6    19    17    1
     7    19    15    1
     8    19    14    1
     9    17     2    1
    10    10     3    2
    11     7    28    1
    12     7     5    1
    13     7     6    1
    14     5     9    1
    15     5     8    1
    16    32    13    1
    17    21     1    1
    18    13     8    1
    19     3     9   am
    20     3     1    1
    21    18     8    1
    22    18     4    1
    23    30    11    1
    24     8    29    1
    25     2    24    1
    26     2     4    1
    27     2    23    1
    28     1    22    1
    29     1    20    1
    30     6     4    1
    31     6    11    1
    32     6    27    1
    33     4    25    1
