@<TRIPOS>MOLECULE
BSABBBMNWQWLLU-GSVOUGTGSA-N	6044362	-268.300628787331
 11 10 0 0 0
SMALL
MULLIKEN NwChem

@<TRIPOS>ATOM
      1 C           0.4636    0.5190    1.3766 C.3     1  LIG1      -0.46999999999999975
      2 C           0.4167   -0.1459   -1.0733 C.2     1  LIG1       0.2400000000000002
      3 C           0.0297   -0.5293    0.3567 C.3     1  LIG1       0.05999999999999961
      4 O           1.3217    0.6035   -1.3639 O.2     1  LIG1      -0.4299999999999997
      5 O          -1.3592   -0.8435    0.4117 O.3     1  LIG1      -0.6600000000000001
      6 H           1.5353    0.7159    1.2858 H       1  LIG1       0.17000000000000004
      7 H           0.2371    0.1775    2.3903 H       1  LIG1       0.17000000000000004
      8 H          -0.0604    1.4666    1.1987 H       1  LIG1       0.17000000000000004
      9 H          -0.2233   -0.6274   -1.8474 H       1  LIG1          0.14
     10 H           0.5383   -1.4822    0.5653 H       1  LIG1       0.18999999999999995
     11 H          -1.8520   -0.0091    0.3506 H       1  LIG1       0.43000000000000005
@<TRIPOS>BOND
     1     9     2    1
     2     4     2    2
     3     2     3    1
     4    11     5    1
     5     3     5    1
     6     3    10    1
     7     3     1    1
     8     8     1    1
     9     6     1    1
    10     1     7    1
