@<TRIPOS>MOLECULE
BSABBBMNWQWLLU-VKHMYHEASA-N	6044363	-268.302133066284
 11 10 0 0 0
SMALL
MULLIKEN NwChem

@<TRIPOS>ATOM
      1 C           0.7260   -1.3747   -0.7576 C.3     1  LIG1      -0.46999999999999975
      2 C           0.5254    0.9406    0.1816 C.2     1  LIG1       0.2400000000000002
      3 C           0.0557   -0.4967    0.3080 C.3     1  LIG1       0.08999999999999986
      4 O          -0.2518    1.8615    0.0338 O.2     1  LIG1      -0.4499999999999993
      5 O          -1.3447   -0.5729    0.2063 O.3     1  LIG1      -0.6799999999999997
      6 H           0.4474   -1.0303   -1.7588 H       1  LIG1       0.17000000000000004
      7 H           0.3807   -2.4055   -0.6408 H       1  LIG1       0.17000000000000004
      8 H           1.8181   -1.3587   -0.6620 H       1  LIG1       0.17000000000000004
      9 H           1.6216    1.1069    0.2297 H       1  LIG1       0.16000000000000003
     10 H           0.3889   -0.8416    1.3058 H       1  LIG1       0.17000000000000004
     11 H          -1.6580    0.3492    0.1337 H       1  LIG1       0.42000000000000004
@<TRIPOS>BOND
     1     6     1    1
     2     1     8    1
     3     1     7    1
     4     1     3    1
     5     4     2    2
     6    11     5    1
     7     2     9    1
     8     2     3    1
     9     5     3    1
    10     3    10    1
