@<TRIPOS>MOLECULE
BTCAEOLDEYPGGE-LPWCLQGBSA-N	6044364	-1169.3161704769423
 75 78 0 0 0
SMALL
MULLIKEN NwChem

@<TRIPOS>ATOM
      1 C          -2.9990    6.3788   -3.7562 C.3     1  LIG1      -0.45999999999999996
      2 C          -3.4809    3.9698   -4.4057 C.3     1  LIG1      -0.45999999999999996
      3 C          -3.6716    4.2139   -0.9453 C.2     1  LIG1      -0.45999999999999996
      4 C          -0.0592    1.9711   -3.5678 C.3     1  LIG1      -0.4800000000000004
      5 C           0.0751   -3.6794    3.2041 C.3     1  LIG1      -0.4900000000000002
      6 C           1.2981   -0.1254   -1.4991 C.3     1  LIG1      -0.4900000000000002
      7 C          -1.3982    4.4079   -1.9678 C.3     1  LIG1      -0.34999999999999964
      8 C          -0.8655    3.0618   -1.4313 C.3     1  LIG1      -0.28000000000000025
      9 C           1.9186   -4.1035    0.8448 C.3     1  LIG1      -0.3099999999999996
     10 C           0.9243   -3.3903   -0.0312 C.2     1  LIG1      -0.23000000000000043
     11 C          -1.5675   -0.6718   -2.6329 C.3     1  LIG1      -0.2999999999999998
     12 C          -1.0417   -1.9667   -1.9495 C.3     1  LIG1      -0.29000000000000004
     13 C           2.4024   -2.6705    4.9775 C.3     1  LIG1      -0.28000000000000025
     14 C           0.9277   -0.2365    1.5794 C.3     1  LIG1      -0.29000000000000004
     15 C           1.5850   -1.8221    3.9930 C.3     1  LIG1      -0.3099999999999996
     16 C           0.0969    0.6113    0.5925 C.3     1  LIG1      -0.29000000000000004
     17 C           3.1895   -4.0940    3.0432 C.3     1  LIG1      -0.29000000000000004
     18 C          -3.5696    5.0274   -3.2887 C.3     1  LIG1      -0.15000000000000036
     19 C          -2.9185    4.5271   -2.0047 C.2     1  LIG1      0.23000000000000043
     20 C          -1.0722    1.8846   -2.4122 C.3     1  LIG1      -0.08000000000000007
     21 C           2.3298   -3.2691    2.0668 C.3     1  LIG1      -0.1200000000000001
     22 C           3.6227   -3.2961    4.2806 C.3     1  LIG1       0.1299999999999999
     23 C           0.2383   -2.3066    0.3517 C.2     1  LIG1      0.17999999999999972
     24 C          -1.1949    0.5175   -1.6891 C.3     1  LIG1      -0.08999999999999986
     25 C          -0.6532   -1.4955   -0.5454 C.3     1  LIG1      -0.16999999999999993
     26 C           0.3710   -1.6770    1.7329 C.3     1  LIG1      -0.16000000000000014
     27 C           1.0986   -2.6107    2.7540 C.3     1  LIG1      0.11000000000000032
     28 C          -0.0675   -0.0602   -0.7831 C.3     1  LIG1      0.09999999999999964
     29 O           4.6059   -2.3079    3.9529 O.3     1  LIG1      -0.6899999999999995
     30 H          -1.9369    6.3047   -4.0208 H       1  LIG1       0.15000000000000002
     31 H          -3.1002    7.1421   -2.9762 H       1  LIG1       0.15000000000000002
     32 H          -3.5307    6.7310   -4.6478 H       1  LIG1       0.15000000000000002
     33 H          -2.4419    3.7271   -4.6558 H       1  LIG1       0.16000000000000003
     34 H          -3.9767    3.0420   -4.1012 H       1  LIG1       0.15000000000000002
     35 H          -3.9647    4.3317   -5.3204 H       1  LIG1       0.15000000000000002
     36 H          -3.2472    3.8365   -0.0186 H       1  LIG1       0.15000000000000002
     37 H          -4.7546    4.3175   -0.9631 H       1  LIG1          0.14
     38 H          -0.1676    1.1478   -4.2795 H       1  LIG1       0.15000000000000002
     39 H          -0.2018    2.9008   -4.1291 H       1  LIG1       0.15000000000000002
     40 H           0.9742    1.9684   -3.2098 H       1  LIG1       0.15000000000000002
     41 H          -0.7133   -3.2131    3.8099 H       1  LIG1          0.14
     42 H          -0.4061   -4.1500    2.3412 H       1  LIG1       0.15000000000000002
     43 H           0.5251   -4.4706    3.8096 H       1  LIG1       0.15000000000000002
     44 H           1.9624   -0.8509   -1.0198 H       1  LIG1          0.14
     45 H           1.2044   -0.4105   -2.5506 H       1  LIG1       0.15000000000000002
     46 H           1.7911    0.8530   -1.4676 H       1  LIG1       0.15000000000000002
     47 H          -0.9840    4.5774   -2.9675 H       1  LIG1       0.16000000000000003
     48 H          -0.9966    5.2220   -1.3494 H       1  LIG1       0.15000000000000002
     49 H           0.2059    3.1674   -1.2140 H       1  LIG1          0.14
     50 H          -1.3472    2.8407   -0.4728 H       1  LIG1          0.14
     51 H           2.8168   -4.3539    0.2609 H       1  LIG1          0.14
     52 H           1.5085   -5.0715    1.1753 H       1  LIG1          0.14
     53 H           0.7733   -3.7971   -1.0291 H       1  LIG1          0.12
     54 H          -1.1280   -0.5550   -3.6272 H       1  LIG1          0.14
     55 H          -2.6530   -0.7021   -2.7802 H       1  LIG1          0.14
     56 H          -0.1671   -2.3561   -2.4818 H       1  LIG1          0.14
     57 H          -1.7854   -2.7701   -1.9280 H       1  LIG1          0.14
     58 H           2.7502   -2.0444    5.8056 H       1  LIG1          0.14
     59 H           1.7803   -3.4645    5.4086 H       1  LIG1          0.14
     60 H           0.9166    0.2713    2.5501 H       1  LIG1          0.14
     61 H           1.9758   -0.2716    1.2530 H       1  LIG1          0.14
     62 H           0.7269   -1.3679    4.5045 H       1  LIG1          0.14
     63 H           2.2165   -0.9835    3.6736 H       1  LIG1          0.14
     64 H          -0.8988    0.7799    1.0283 H       1  LIG1          0.13
     65 H           0.5616    1.5982    0.4929 H       1  LIG1          0.14
     66 H           2.6251   -4.9771    3.3703 H       1  LIG1          0.14
     67 H           4.0873   -4.4598    2.5295 H       1  LIG1          0.13
     68 H          -4.6352    5.1805   -3.0726 H       1  LIG1          0.13
     69 H          -2.0663    2.0237   -2.8611 H       1  LIG1          0.12
     70 H           2.9511   -2.4415    1.6876 H       1  LIG1          0.13
     71 H           4.1421   -3.9611    4.9809 H       1  LIG1          0.13
     72 H          -2.0514    0.6549   -1.0123 H       1  LIG1          0.12
     73 H          -1.5937   -1.3332    0.0084 H       1  LIG1          0.13
     74 H          -0.6552   -1.5443    2.1170 H       1  LIG1          0.13
     75 H           4.2205   -1.7021    3.3024 H       1  LIG1       0.43000000000000005
@<TRIPOS>BOND
     1    35     2    1
     2    33     2    1
     3    32     1    1
     4     2    34    1
     5     2    18    1
     6    38     4    1
     7    39     4    1
     8    30     1    1
     9     1    18    1
    10     1    31    1
    11    54    11    1
    12     4    40    1
    13     4    20    1
    14    18    68    1
    15    18    19    1
    16    47     7    1
    17    69    20    1
    18    55    11    1
    19    11    12    1
    20    11    24    1
    21    45     6    1
    22    56    12    1
    23    20    24    1
    24    20     8    1
    25    19     7    1
    26    19     3    2
    27     7     8    1
    28     7    48    1
    29    12    57    1
    30    12    25    1
    31    24    72    1
    32    24    28    1
    33     6    46    1
    34     6    44    1
    35     6    28    1
    36     8    49    1
    37     8    50    1
    38    53    10    1
    39    37     3    1
    40     3    36    1
    41    28    25    1
    42    28    16    1
    43    25    73    1
    44    25    23    1
    45    10    23    2
    46    10     9    1
    47    51     9    1
    48    23    26    1
    49    65    16    1
    50    16    64    1
    51    16    14    1
    52     9    52    1
    53     9    21    1
    54    61    14    1
    55    14    26    1
    56    14    60    1
    57    70    21    1
    58    26    74    1
    59    26    27    1
    60    21    27    1
    61    21    17    1
    62    42     5    1
    63    67    17    1
    64    27     5    1
    65    27    15    1
    66    17    66    1
    67    17    22    1
    68     5    43    1
    69     5    41    1
    70    75    29    1
    71    63    15    1
    72    29    22    1
    73    15    62    1
    74    15    13    1
    75    22    13    1
    76    22    71    1
    77    13    59    1
    78    13    58    1
