@<TRIPOS>MOLECULE
BTCSSZJGUNDROE-UHFFFAOYSA-N	6044365	-362.9598224384384
 16 15 0 0 0
SMALL
MULLIKEN NwChem

@<TRIPOS>ATOM
      1 C           0.0408    0.5652   -1.1058 C.3     1  LIG1      -0.2699999999999996
      2 C          -0.4581   -0.8716   -0.8684 C.3     1  LIG1       -0.33999999999999986
      3 C          -0.4515    1.5524   -0.0451 C.3     1  LIG1      -0.13999999999999968
      4 C           0.0088   -1.4552    0.4474 C.2     1  LIG1       0.5800000000000001
      5 N          -0.0000    2.9090   -0.3727 N.3     1  LIG1      -0.7800000000000002
      6 O          -0.6996   -1.8830    1.3312 O.2     1  LIG1      -0.5199999999999996
      7 O           1.3666   -1.4485    0.5429 O.3     1  LIG1      -0.5800000000000001
      8 H          -0.2986    0.9093   -2.0891 H       1  LIG1       0.15000000000000002
      9 H           1.1380    0.5637   -1.1260 H       1  LIG1       0.16000000000000003
     10 H          -1.5507   -0.9160   -0.8685 H       1  LIG1       0.17000000000000004
     11 H          -0.0904   -1.5217   -1.6720 H       1  LIG1       0.18999999999999995
     12 H          -1.5493    1.5546   -0.0378 H       1  LIG1       0.15000000000000002
     13 H          -0.1339    1.2017    0.9548 H       1  LIG1          0.13
     14 H          -0.3746    3.5713    0.3046 H       1  LIG1       0.32999999999999996
     15 H           1.0144    2.9593   -0.2818 H       1  LIG1       0.31999999999999995
     16 H           1.5767   -1.8344    1.4139 H       1  LIG1       0.43999999999999995
@<TRIPOS>BOND
     1     8     1    1
     2    11     2    1
     3     9     1    1
     4     1     2    1
     5     1     3    1
     6    10     2    1
     7     2     4    1
     8     5    15    1
     9     5     3    1
    10     5    14    1
    11     3    12    1
    12     3    13    1
    13     4     7    1
    14     4     6    2
    15     7    16    1
