@<TRIPOS>MOLECULE
BTJIUGUIPKRLHP-UHFFFAOYSA-M	6044366	-511.44749715987825
 14 14 0 0 0
SMALL
MULLIKEN NwChem

@<TRIPOS>ATOM
      1 C          -1.1187    0.4974    0.0088 C.2     1  LIG1      -0.16999999999999993
      2 C           1.0582   -0.6167   -0.0026 C.2     1  LIG1      -0.16999999999999993
      3 C          -1.7461   -0.7211    0.0553 C.2     1  LIG1      -0.2599999999999998
      4 C           0.4370   -1.8383    0.0454 C.2     1  LIG1        -0.25
      5 C           0.2959    0.5781   -0.0216 C.3     1  LIG1          0.25
      6 C          -1.0153   -1.9847    0.0774 C.2     1  LIG1       0.41999999999999993
      7 N           0.9382    1.8345   -0.0693 N.pl3   1  LIG1       0.33000000000000007
      8 O          -1.5859   -3.0999    0.1202 O.2     1  LIG1      -0.6899999999999995
      9 O           2.1922    1.8824   -0.0957 O.2     1  LIG1      -0.5099999999999998
     10 O           0.2427    2.8792   -0.0845 O.2     1  LIG1      -0.5099999999999998
     11 H          -1.6822    1.4246   -0.0057 H       1  LIG1       0.16000000000000003
     12 H           2.1398   -0.5317   -0.0272 H       1  LIG1       0.16000000000000003
     13 H          -2.8320   -0.7879    0.0779 H       1  LIG1          0.12
     14 H           1.0177   -2.7584    0.0615 H       1  LIG1           0.13
@<TRIPOS>BOND
     1     9     7    2
     2    10     7    2
     3     7     5    1
     4    12     2    1
     5     5     2    1
     6     5     1    1
     7    11     1    1
     8     2     4    2
     9     1     3    2
    10     4    14    1
    11     4     6    1
    12     3     6    1
    13     3    13    1
    14     6     8    2
