@<TRIPOS>MOLECULE
BTNMPGBKDVTSJY-UHFFFAOYSA-M	6044367	-572.8899884277706
 19 19 0 0 0
SMALL
MULLIKEN NwChem

@<TRIPOS>ATOM
      1 C          -3.2420   -0.7665    0.9241 C.ar    1  LIG1      -0.16000000000000014
      2 C          -2.5703    0.4608    0.9019 C.ar    1  LIG1      -0.16000000000000014
      3 C          -2.5089   -1.9479    0.8049 C.ar    1  LIG1      -0.15000000000000036
      4 C          -1.1836    0.5102    0.7692 C.ar    1  LIG1      -0.20000000000000018
      5 C          -1.1183   -1.8993    0.6745 C.ar    1  LIG1      -0.20999999999999996
      6 C           1.0674   -0.6125    0.5161 C.3     1  LIG1       -0.41000000000000014
      7 C          -0.4363   -0.6757    0.6646 C.ar    1  LIG1      0.1299999999999999
      8 C           1.4907   -0.0106   -0.8538 C.2     1  LIG1       0.3700000000000001
      9 C           1.9858    1.4750   -0.8126 C.2     1  LIG1       0.4800000000000004
     10 O           1.3736   -0.6817   -1.8642 O.2     1  LIG1      -0.5099999999999998
     11 O           2.9055    1.7774   -1.5930 O.co2   1  LIG1      -0.6400000000000006
     12 O           1.3608    2.1680    0.0404 O.co2   1  LIG1      -0.6199999999999992
     13 H          -4.3252   -0.8003    1.0265 H       1  LIG1       0.15000000000000002
     14 H          -3.1344    1.3885    0.9816 H       1  LIG1       0.15000000000000002
     15 H          -3.0178   -2.9103    0.8122 H       1  LIG1       0.15000000000000002
     16 H          -0.6378    1.4498    0.7092 H       1  LIG1       0.16000000000000003
     17 H          -0.5520   -2.8236    0.5789 H       1  LIG1       0.15000000000000002
     18 H           1.4936    0.0063    1.3103 H       1  LIG1       0.16000000000000003
     19 H           1.4864   -1.6251    0.5706 H       1  LIG1       0.17000000000000004
@<TRIPOS>BOND
     1    10     8    2
     2    11     9   ar
     3     8     9    1
     4     8     6    1
     5     9    12   ar
     6     6    19    1
     7     6     7    1
     8     6    18    1
     9    17     5    1
    10     7     5   ar
    11     7     4   ar
    12     5     3   ar
    13    16     4    1
    14     4     2   ar
    15     3    15    1
    16     3     1   ar
    17     2     1   ar
    18     2    14    1
    19     1    13    1
