@<TRIPOS>MOLECULE
BTVWZWFKMIUSGS-UHFFFAOYSA-N	6044368	-308.78224569545245
 16 15 0 0 0
SMALL
MULLIKEN NwChem

@<TRIPOS>ATOM
      1 C           0.9637   -1.0995    0.5645 C.3     1  LIG1      -0.46999999999999975
      2 C           0.8271   -0.1283   -1.7635 C.3     1  LIG1      -0.45999999999999996
      3 C          -1.1739    0.0050   -0.2416 C.3     1  LIG1       -0.07000000000000028
      4 C           0.3647    0.0110   -0.3147 C.3     1  LIG1       0.29000000000000004
      5 O          -1.6346    0.3669    1.0641 O.3     1  LIG1      -0.6699999999999999
      6 O           0.8234    1.2842    0.1445 O.3     1  LIG1      -0.6899999999999995
      7 H           0.6553   -2.0969    0.2279 H       1  LIG1       0.15000000000000002
      8 H           0.6589   -0.9755    1.6113 H       1  LIG1       0.15000000000000002
      9 H           2.0558   -1.0425    0.5360 H       1  LIG1       0.15000000000000002
     10 H           0.5118   -1.0875   -2.1896 H       1  LIG1       0.16000000000000003
     11 H           0.4161    0.6836   -2.3722 H       1  LIG1       0.15000000000000002
     12 H           1.9192   -0.0692   -1.8124 H       1  LIG1       0.15000000000000002
     13 H          -1.5644    0.7772   -0.9110 H       1  LIG1       0.15000000000000002
     14 H          -1.5798   -0.9676   -0.5580 H       1  LIG1       0.15000000000000002
     15 H          -1.5007   -0.3946    1.6490 H       1  LIG1       0.43999999999999995
     16 H           0.2620    1.4970    0.9116 H       1  LIG1       0.41000000000000003
@<TRIPOS>BOND
     1    11     2    1
     2    10     2    1
     3    12     2    1
     4     2     4    1
     5    13     3    1
     6    14     3    1
     7     4     3    1
     8     4     6    1
     9     4     1    1
    10     3     5    1
    11     6    16    1
    12     7     1    1
    13     9     1    1
    14     1     8    1
    15     5    15    1
