@<TRIPOS>MOLECULE
BUTHMSUEBYPMKJ-UHFFFAOYSA-L	6044370	-965.2608790997925
 12 11 0 0 0
SMALL
MULLIKEN NwChem

@<TRIPOS>ATOM
      1 C           0.5659   -0.2251   -0.0299 C.3     1  LIG1       -0.5800000000000001
      2 C          -0.6173   -0.2558    0.9437 C.2     1  LIG1       0.3799999999999999
      3 C          -0.1774   -0.1693    2.4464 C.2     1  LIG1       0.46999999999999975
      4 O          -1.7848   -0.3824    0.6082 O.2     1  LIG1      -0.5099999999999998
      5 O           0.6161   -1.0874    2.7893 O.co2   1  LIG1      -0.6400000000000006
      6 O          -0.6576    0.7756    3.1173 O.co2   1  LIG1      -0.6500000000000004
      7 O           1.7604   -0.2446   -2.3393 O.2     1  LIG1      -0.6699999999999999
      8 O          -0.2913   -1.6528   -2.1272 O.3     1  LIG1      -0.6500000000000004
      9 O          -0.4813    0.8489   -2.2463 O.2     1  LIG1      -0.6500000000000004
     10 S           0.3429   -0.3309   -1.8516 S.3     1  LIG1       1.0700000000000003
     11 H           1.2360   -1.0394    0.2612 H       1  LIG1       0.21999999999999997
     12 H           1.1204    0.7057    0.1484 H       1  LIG1       0.20999999999999996
@<TRIPOS>BOND
     1     7    10    2
     2     9    10    2
     3     8    10    1
     4    10     1    1
     5     1    12    1
     6     1    11    1
     7     1     2    1
     8     4     2    2
     9     2     3    1
    10     3     5   ar
    11     3     6   ar
