@<TRIPOS>MOLECULE
BUZOGVVQWCXXDP-VPENINKCSA-J	11152725	-2739.858651086869
 44 46 0 0 0
SMALL
MULLIKEN NwChem

@<TRIPOS>ATOM
      1 C           2.0907    2.1801   -1.0683 C.3     1  LIG1       -0.3600000000000003
      2 C          -0.3197   -0.6330   -0.3410 C.3     1  LIG1       -0.05999999999999961
      3 C           0.6544    1.6326   -1.0700 C.3     1  LIG1       0.1299999999999999
      4 C           0.7554    0.4237   -0.1172 C.3     1  LIG1       0.1200000000000001
      5 C           2.9378    1.0694   -0.3875 C.3     1  LIG1       0.28000000000000025
      6 C           6.3999    0.4303   -1.0607 C.ar    1  LIG1       0.09999999999999964
      7 C           5.3150    0.3943   -0.2369 C.ar    1  LIG1       0.5099999999999998
      8 C           7.7153    0.1030   -0.4793 C.ar    1  LIG1       0.4400000000000004
      9 C           6.6574   -0.2893    1.6521 C.ar    1  LIG1       0.5599999999999996
     10 C           4.7104    1.0383   -2.3491 C.ar    1  LIG1       0.6299999999999999
     11 N           6.7125   -0.7022    2.9123 N.pl3   1  LIG1      -0.8399999999999999
     12 N           6.0292    0.8256   -2.3575 N.ar    1  LIG1      -0.7300000000000004
     13 N           5.3712    0.1300    1.1251 N.ar    1  LIG1      -0.7400000000000002
     14 N           7.7500   -0.2226    0.8691 N.ar    1  LIG1      -0.6799999999999997
     15 N           4.1984    0.7835   -0.9654 N.ar    1  LIG1      -0.5999999999999996
     16 O          -0.2900    2.6129   -0.6486 O.3     1  LIG1      -0.6999999999999993
     17 O           8.7705    0.1209   -1.1553 O.2     1  LIG1      -0.6899999999999995
     18 O           3.9264    1.3974   -3.2652 O.2     1  LIG1      -0.6999999999999993
     19 O          -7.0397    1.5001    1.6908 O.3     1  LIG1      -0.6699999999999999
     20 O          -7.6521   -1.0203    1.2574 O.2     1  LIG1      -0.6799999999999997
     21 O          -6.3523    0.2801   -0.5098 O.3     1  LIG1        -0.75
     22 O          -3.7321    0.9744   -0.9668 O.3     1  LIG1      -0.6999999999999993
     23 O          -2.5543   -1.0055   -2.2930 O.2     1  LIG1      -0.6400000000000006
     24 O          -2.7906   -0.8265    2.2440 O.3     1  LIG1      -0.7200000000000006
     25 O          -4.4963   -2.7436    2.0275 O.2     1  LIG1      -0.6099999999999994
     26 O          -1.5857    0.0115   -0.0913 O.3     1  LIG1      -0.6300000000000008
     27 O           2.0485   -0.1080   -0.3463 O.3     1  LIG1      -0.5600000000000005
     28 O          -5.1591   -0.2159    1.6987 O.3     1  LIG1      -0.6400000000000006
     29 O          -3.6939   -1.4537   -0.0518 O.3     1  LIG1      -0.6500000000000004
     30 P          -6.7514    0.1635    1.0680 P.3     1  LIG1       1.0600000000000005
     31 P          -2.9550   -0.3140   -1.0327 P.3     1  LIG1       1.1999999999999993
     32 P          -4.1283   -1.3994    1.5193 P.3     1  LIG1       1.1999999999999993
     33 H           2.4825    2.3566   -2.0716 H       1  LIG1       0.18000000000000005
     34 H           2.1258    3.1011   -0.4748 H       1  LIG1       0.16000000000000003
     35 H          -0.1996   -1.4791    0.3484 H       1  LIG1       0.17000000000000004
     36 H          -0.2909   -1.0041   -1.3693 H       1  LIG1       0.17000000000000004
     37 H           0.3967    1.2558   -2.0729 H       1  LIG1          0.14
     38 H           0.6584    0.8145    0.9160 H       1  LIG1          0.13
     39 H           3.1123    1.3374    0.6685 H       1  LIG1       0.15000000000000002
     40 H           5.7664   -0.6007    3.3067 H       1  LIG1          0.26
     41 H           4.5754   -0.3666    1.5126 H       1  LIG1          0.36
     42 H          -1.1410    2.1427   -0.5697 H       1  LIG1       0.43000000000000005
     43 H          -5.4482    0.6686   -0.6382 H       1  LIG1          0.47
     44 H          -2.2641   -0.3069    1.5939 H       1  LIG1           0.48
@<TRIPOS>BOND
     1    18    10    2
     2    12    10   ar
     3    12     6   ar
     4    10    15   ar
     5    23    31    2
     6    37     3    1
     7    33     1    1
     8    36     2    1
     9    17     8    2
    10     3     1    1
    11     3    16    1
    12     3     4    1
    13     1    34    1
    14     1     5    1
    15     6     8   ar
    16     6     7   ar
    17    31    22    1
    18    31    26    1
    19    31    29    1
    20    15     5    1
    21    15     7   ar
    22    16    42    1
    23    43    21    1
    24    21    30    1
    25     8    14   ar
    26     5    27    1
    27     5    39    1
    28    27     4    1
    29     2     4    1
    30     2    26    1
    31     2    35    1
    32     7    13   ar
    33     4    38    1
    34    29    32    1
    35    14     9   ar
    36    30    20    2
    37    30    19    1
    38    30    28    1
    39    13    41    1
    40    13     9   ar
    41    32    28    1
    42    32    25    2
    43    32    24    1
    44    44    24    1
    45     9    11    1
    46    11    40    1
