@<TRIPOS>MOLECULE
BVKZGUZCCUSVTD-UHFFFAOYSA-N	6044375	-264.989020109887
 6 5 0 0 0
SMALL
MULLIKEN NwChem

@<TRIPOS>ATOM
      1 C          -0.0331   -0.0407    0.0405 C.2     1  LIG1       0.7199999999999998
      2 O          -0.6380   -0.7862    0.7780 O.2     1  LIG1      -0.5199999999999996
      3 O          -0.5857    0.8292   -0.8213 O.3     1  LIG1      -0.5700000000000003
      4 O           1.3035    0.0556   -0.0535 O.3     1  LIG1      -0.5700000000000003
      5 H          -1.5475    0.7273   -0.7226 H       1  LIG1          0.47
      6 H           1.6622   -0.5868    0.5820 H       1  LIG1           0.47
@<TRIPOS>BOND
     1     3     5    1
     2     3     1    1
     3     4     1    1
     4     4     6    1
     5     1     2    2
