@<TRIPOS>MOLECULE
BVKZGUZCCUSVTD-UHFFFAOYSA-M	6044374	-264.531797820052
 5 4 0 0 0
SMALL
MULLIKEN NwChem

@<TRIPOS>ATOM
      1 C          -0.1767   -0.0044    0.0299 C.2     1  LIG1       0.6200000000000001
      2 O          -0.6233    0.1615   -1.1313 O.co2   1  LIG1      -0.6699999999999999
      3 O          -0.7253   -0.1613    1.1308 O.co2   1  LIG1      -0.6600000000000001
      4 O           1.2782   -0.0133    0.0888 O.3     1  LIG1      -0.6899999999999995
      5 H           1.4960    0.1217   -0.8475 H       1  LIG1            0.4
@<TRIPOS>BOND
     1     2     1   ar
     2     5     4    1
     3     1     4    1
     4     1     3   ar
