@<TRIPOS>MOLECULE
BVKZGUZCCUSVTD-UHFFFAOYSA-L	6044373	-264.0155597934779
 4 3 0 0 0
SMALL
MULLIKEN NwChem

@<TRIPOS>ATOM
      1 C          -0.0000    0.0001   -0.0002 C.2     1  LIG1       0.45999999999999996
      2 O          -0.6568    1.0419    0.4567 O.co2   1  LIG1      -0.8200000000000003
      3 O          -0.6568   -1.0419   -0.4565 O.co2   1  LIG1      -0.8200000000000003
      4 O           1.3135   -0.0000    0.0001 O.co2   1  LIG1      -0.8200000000000003
@<TRIPOS>BOND
     1     3     1   ar
     2     1     4   ar
     3     1     2   ar
