@<TRIPOS>MOLECULE
BWLBGMIXKSTLSX-UHFFFAOYSA-M	6044376	-382.38824229758234
 14 13 0 0 0
SMALL
MULLIKEN NwChem

@<TRIPOS>ATOM
      1 C           1.0387    1.2059    0.8155 C.3     1  LIG1      -0.45999999999999996
      2 C           1.0518   -1.3122    0.6237 C.3     1  LIG1      -0.45999999999999996
      3 C          -1.0257   -0.0071   -0.0263 C.2     1  LIG1          0.54
      4 C           0.5560   -0.0010    0.0018 C.3     1  LIG1          0.25
      5 O          -1.5077    0.0763   -1.1966 O.co2   1  LIG1      -0.6799999999999997
      6 O          -1.6099   -0.0912    1.0749 O.co2   1  LIG1      -0.6699999999999999
      7 O           1.0272    0.1032   -1.3400 O.3     1  LIG1      -0.7400000000000002
      8 H           0.6001    1.1811    1.8184 H       1  LIG1          0.14
      9 H           0.7226    2.1306    0.3179 H       1  LIG1          0.14
     10 H           2.1359    1.2194    0.8941 H       1  LIG1          0.14
     11 H           0.6197   -1.4415    1.6215 H       1  LIG1          0.14
     12 H           0.7395   -2.1551   -0.0046 H       1  LIG1          0.14
     13 H           2.1495   -1.3277    0.6932 H       1  LIG1          0.14
     14 H           0.1450    0.1314   -1.8011 H       1  LIG1           0.39
@<TRIPOS>BOND
     1    14     7    1
     2     7     4    1
     3     5     3   ar
     4     3     4    1
     5     3     6   ar
     6    12     2    1
     7     4     2    1
     8     4     1    1
     9     9     1    1
    10     2    13    1
    11     2    11    1
    12     1    10    1
    13     1     8    1
