@<TRIPOS>MOLECULE
BXIPALATIYNHJN-ZMHDXICWSA-J	11152723	-4098.134844573247
 92 94 0 0 0
SMALL
MULLIKEN NwChem

@<TRIPOS>ATOM
      1 C           9.4851   -3.4403    1.6960 C.3     1  LIG1      -0.5499999999999998
      2 C          11.5356   -4.6625    2.5861 C.3     1  LIG1      -0.5300000000000002
      3 C           2.7262    0.1151    0.2467 C.3     1  LIG1      -0.5099999999999998
      4 C           2.5146   -0.5223   -2.1845 C.3     1  LIG1      -0.4800000000000004
      5 C           8.3155    0.1953    1.4149 C.3     1  LIG1       -0.33999999999999986
      6 C           7.3657   -0.5239    0.4341 C.3     1  LIG1       -0.09999999999999964
      7 C          11.5683    0.5224   -0.3982 C.3     1  LIG1       -0.11000000000000032
      8 C          12.6625    0.5696    0.7111 C.3     1  LIG1       -0.4400000000000004
      9 C          11.7124   -2.4757    1.2869 C.2     1  LIG1      -0.28000000000000025
     10 C          -4.9914    0.9134   -0.7149 C.3     1  LIG1       -0.08000000000000007
     11 C           2.1672    1.8649   -1.4765 C.3     1  LIG1       -0.08000000000000007
     12 C          -8.3088   -4.4768   -0.4161 C.ar    1  LIG1       0.15000000000000036
     13 C          -9.5226   -0.7710    1.5059 C.ar    1  LIG1       0.21999999999999975
     14 C          10.9872   -3.4786    1.8297 C.2     1  LIG1      0.20999999999999996
     15 C          -6.3843    1.0097   -1.3314 C.3     1  LIG1       0.1299999999999999
     16 C           9.6530    0.7491    0.8758 C.2     1  LIG1       0.4900000000000002
     17 C          13.1794   -2.3807    1.2953 C.2     1  LIG1       0.2599999999999998
     18 C          -9.3924   -2.8864    1.4136 C.ar    1  LIG1       0.1900000000000004
     19 C          -8.2693    1.3998    0.1735 C.3     1  LIG1       0.13999999999999968
     20 C          -7.2635    2.1670   -0.7745 C.3     1  LIG1       0.05999999999999961
     21 C           4.4593    0.9322   -1.4134 C.3     1  LIG1       0.07000000000000028
     22 C          -9.4931   -4.2761    1.5376 C.ar    1  LIG1       0.4299999999999997
     23 C          -8.6968   -2.4035    0.2829 C.ar    1  LIG1       0.5300000000000002
     24 C           5.4450   -0.1703   -0.8835 C.2     1  LIG1       0.5300000000000002
     25 C          -8.3188    0.0175   -0.5524 C.3     1  LIG1       0.2599999999999998
     26 C           2.9501    0.5765   -1.2015 C.3     1  LIG1       0.08999999999999986
     27 N         -10.1394   -4.8572    2.6274 N.pl3   1  LIG1      -0.7800000000000002
     28 N          10.3090   -0.0485    0.0230 N.am    1  LIG1      -0.5800000000000001
     29 N           6.3897    0.3800   -0.1515 N.am    1  LIG1      -0.6299999999999999
     30 N          -8.9529   -5.0798    0.6095 N.ar    1  LIG1        -0.54
     31 N          -8.1326   -3.1810   -0.6579 N.ar    1  LIG1        -0.54
     32 N          -9.9128   -1.8512    2.1660 N.ar    1  LIG1      -0.5899999999999999
     33 N          -8.7742   -1.0353    0.3778 N.ar    1  LIG1        -0.54
     34 O          10.0618    1.8545    1.3366 O.2     1  LIG1      -0.7100000000000009
     35 O          13.9773   -3.2787    1.5561 O.2     1  LIG1      -0.5299999999999994
     36 O          -9.4493    1.9566    0.4916 O.3     1  LIG1      -0.7699999999999996
     37 O           4.7621    2.1696   -0.7902 O.3     1  LIG1      -0.7200000000000006
     38 O           5.2413   -1.3835   -1.1825 O.2     1  LIG1      -0.7100000000000009
     39 O          -9.1149    3.6927   -3.8507 O.2     1  LIG1      -0.6999999999999993
     40 O         -10.3508    2.6383   -1.8598 O.3     1  LIG1      -0.7799999999999994
     41 O          -8.7645    1.1489   -3.2761 O.3     1  LIG1      -0.7300000000000004
     42 O          -2.8470    4.0334   -1.3455 O.3     1  LIG1      -0.6799999999999997
     43 O          -3.3595    2.9147    1.0033 O.2     1  LIG1      -0.5899999999999999
     44 O           0.3276    2.3207    1.0261 O.3     1  LIG1      -0.6699999999999999
     45 O          -0.2046    4.0436   -0.7844 O.2     1  LIG1      -0.6400000000000006
     46 O          -4.0964    1.9111   -1.3099 O.3     1  LIG1      -0.5099999999999998
     47 O           0.7059    1.6221   -1.3900 O.3     1  LIG1      -0.5299999999999994
     48 O          -6.9864   -0.2556   -0.9407 O.3     1  LIG1      -0.5600000000000005
     49 O          -7.8176    3.0173   -1.7522 O.3     1  LIG1      -0.6400000000000006
     50 O          -1.6251    1.8967   -0.6549 O.3     1  LIG1      -0.6099999999999994
     51 P          -9.0501    2.5775   -2.8434 P.3     1  LIG1       1.0600000000000005
     52 P          -3.0759    2.7422   -0.4368 P.3     1  LIG1       1.2300000000000004
     53 P          -0.1751    2.5820   -0.4828 P.3     1  LIG1       1.2400000000000002
     54 S          13.9281   -0.7979    0.8103 S.3     1  LIG1          0.0
     55 H           9.1514   -2.6045    1.0770 H       1  LIG1       0.18999999999999995
     56 H           9.0080   -3.3510    2.6829 H       1  LIG1       0.18000000000000005
     57 H           9.1127   -4.3776    1.2564 H       1  LIG1       0.17000000000000004
     58 H          12.6089   -4.5854    2.7560 H       1  LIG1       0.18000000000000005
     59 H          11.0077   -4.7723    3.5454 H       1  LIG1       0.17000000000000004
     60 H          11.3419   -5.5883    2.0226 H       1  LIG1       0.18000000000000005
     61 H           3.0780    0.8819    0.9471 H       1  LIG1       0.16000000000000003
     62 H           3.2964   -0.8007    0.4247 H       1  LIG1       0.16000000000000003
     63 H           1.6644   -0.1145    0.4306 H       1  LIG1       0.16000000000000003
     64 H           2.6326   -0.1772   -3.2213 H       1  LIG1          0.14
     65 H           1.4601   -0.7857   -2.0375 H       1  LIG1          0.14
     66 H           3.1596   -1.3912   -2.0384 H       1  LIG1       0.16000000000000003
     67 H           7.7848    1.0281    1.8894 H       1  LIG1       0.09999999999999998
     68 H           8.5876   -0.5037    2.2253 H       1  LIG1          0.13
     69 H           6.8423   -1.3466    0.9597 H       1  LIG1       0.08999999999999997
     70 H           7.9717   -1.0135   -0.3438 H       1  LIG1       0.10999999999999999
     71 H          11.4508    1.5753   -0.7155 H       1  LIG1       0.10999999999999999
     72 H          11.9651   -0.0412   -1.2574 H       1  LIG1       0.10999999999999999
     73 H          13.3328    1.4289    0.5658 H       1  LIG1       0.18000000000000005
     74 H          12.1830    0.6970    1.6818 H       1  LIG1       0.18999999999999995
     75 H          11.1576   -1.6605    0.7972 H       1  LIG1       0.19999999999999996
     76 H          -4.5543   -0.0664   -0.9288 H       1  LIG1       0.19999999999999996
     77 H          -5.0365    1.0657    0.3667 H       1  LIG1       0.18999999999999995
     78 H           2.3419    2.2217   -2.4954 H       1  LIG1       0.18000000000000005
     79 H           2.4579    2.6490   -0.7752 H       1  LIG1       0.19999999999999996
     80 H          -7.8817   -5.1581   -1.1524 H       1  LIG1       0.16000000000000003
     81 H          -9.7758    0.2708    1.7043 H       1  LIG1       0.20999999999999996
     82 H          -6.3468    1.0743   -2.4223 H       1  LIG1       0.16000000000000003
     83 H          -7.6288    1.1679    1.0744 H       1  LIG1       0.07999999999999996
     84 H          -6.6418    2.8291   -0.1551 H       1  LIG1       0.15000000000000002
     85 H           4.6108    1.0163   -2.5082 H       1  LIG1       0.10999999999999999
     86 H          -8.9760    0.0371   -1.4269 H       1  LIG1       0.17000000000000004
     87 H         -10.8006   -4.2239    3.0634 H       1  LIG1          0.36
     88 H         -10.5295   -5.7662    2.4072 H       1  LIG1          0.36
     89 H         -10.0689    2.3750   -0.9089 H       1  LIG1       0.42000000000000004
     90 H           5.5948    1.8965   -0.2892 H       1  LIG1          0.38
     91 H          -1.9092    4.3413   -1.2324 H       1  LIG1          0.49
     92 H           0.7466    1.4460    1.1124 H       1  LIG1           0.48
@<TRIPOS>BOND
     1    39    51    2
     2    41    51    1
     3    64     4    1
     4    51    40    1
     5    51    49    1
     6    85    21    1
     7    78    11    1
     8    82    15    1
     9     4    66    1
    10     4    65    1
    11     4    26    1
    12    40    89    1
    13    49    20    1
    14    11    47    1
    15    11    26    1
    16    11    79    1
    17    86    25    1
    18    21    26    1
    19    21    24    1
    20    21    37    1
    21    47    53    1
    22    42    91    1
    23    42    52    1
    24    15    48    1
    25    15    20    1
    26    15    10    1
    27    46    10    1
    28    46    52    1
    29    72     7    1
    30    26     3    1
    31    38    24    2
    32    80    12    1
    33    48    25    1
    34    76    10    1
    35    24    29   am
    36    37    90    1
    37    45    53    2
    38    20    84    1
    39    20    19    1
    40    71     7    1
    41    10    77    1
    42    31    12   ar
    43    31    23   ar
    44    50    53    1
    45    50    52    1
    46    25    19    1
    47    25    33    1
    48    53    44    1
    49    52    43    2
    50    12    30   ar
    51     7    28    1
    52     7     8    1
    53    70     6    1
    54    29     6    1
    55    28    16   am
    56    19    36    1
    57    19    83    1
    58     3    62    1
    59     3    63    1
    60     3    61    1
    61    23    33   ar
    62    23    18   ar
    63    33    13   ar
    64     6    69    1
    65     6     5    1
    66    73     8    1
    67    30    22   ar
    68     8    54    1
    69     8    74    1
    70    75     9    1
    71    54    17    1
    72    16    34    2
    73    16     5    1
    74    44    92    1
    75    55     1    1
    76    57     1    1
    77     9    17    1
    78     9    14    2
    79    17    35    2
    80    18    22   ar
    81    18    32   ar
    82     5    67    1
    83     5    68    1
    84    13    81    1
    85    13    32   ar
    86    22    27    1
    87     1    14    1
    88     1    56    1
    89    14     2    1
    90    60     2    1
    91    88    27    1
    92     2    58    1
    93     2    59    1
    94    27    87    1
