@<TRIPOS>MOLECULE
BYGQBDHUGHBGMD-UHFFFAOYSA-N	6044378	-271.66973089929826
 16 15 0 0 0
SMALL
MULLIKEN NwChem

@<TRIPOS>ATOM
      1 C           0.2258    0.7300    2.2825 C.3     1  LIG1      -0.45999999999999996
      2 C          -0.2952   -1.6239    0.2722 C.3     1  LIG1      -0.4800000000000004
      3 C          -0.2708    0.8853    0.8406 C.3     1  LIG1      -0.2699999999999996
      4 C          -0.2353    0.1031   -1.5199 C.2     1  LIG1       0.2699999999999996
      5 C           0.2245   -0.2273   -0.1137 C.3     1  LIG1       -0.13999999999999968
      6 O           0.4934    0.3795   -2.4467 O.2     1  LIG1      -0.46000000000000085
      7 H          -0.1743   -0.1714    2.7586 H       1  LIG1       0.16000000000000003
      8 H          -0.0814    1.5877    2.8908 H       1  LIG1       0.15000000000000002
      9 H           1.3202    0.6699    2.3156 H       1  LIG1       0.15000000000000002
     10 H          -1.3925   -1.6498    0.2679 H       1  LIG1       0.16000000000000003
     11 H           0.0651   -2.3858   -0.4279 H       1  LIG1       0.16000000000000003
     12 H           0.0422   -1.9065    1.2736 H       1  LIG1       0.17000000000000004
     13 H          -1.3702    0.9080    0.8284 H       1  LIG1       0.15000000000000002
     14 H           0.0640    1.8550    0.4491 H       1  LIG1       0.15000000000000002
     15 H          -1.3447    0.0832   -1.6536 H       1  LIG1          0.13
     16 H           1.3213   -0.2273   -0.1303 H       1  LIG1       0.15000000000000002
@<TRIPOS>BOND
     1     6     4    2
     2    15     4    1
     3     4     5    1
     4    11     2    1
     5    16     5    1
     6     5     2    1
     7     5     3    1
     8    10     2    1
     9     2    12    1
    10    14     3    1
    11    13     3    1
    12     3     1    1
    13     1     9    1
    14     1     7    1
    15     1     8    1
