@<TRIPOS>MOLECULE
BYHJHXPTQMMKCA-UHFFFAOYSA-N	6044380	-836.6311965242901
 29 29 0 0 0
SMALL
MULLIKEN NwChem

@<TRIPOS>ATOM
      1 C          -3.2821   -1.7768    0.8093 C.ar    1  LIG1      -0.15000000000000036
      2 C          -2.5894   -2.7724    1.5028 C.ar    1  LIG1      -0.13999999999999968
      3 C          -2.5676   -0.7700    0.1724 C.ar    1  LIG1      -0.1900000000000004
      4 C          -1.1986   -2.7515    1.5412 C.ar    1  LIG1      -0.17999999999999972
      5 C           0.9664    0.6344   -0.5722 C.3     1  LIG1       -0.3600000000000003
      6 C           1.6358   -2.7018    0.5732 C.2     1  LIG1          0.25
      7 C          -1.1624   -0.7187    0.1960 C.ar    1  LIG1       0.05999999999999961
      8 CA          1.3574    1.9158   -1.3032 C.3     1  LIG1       -0.03000000000000025
      9 C          -0.4629   -1.7390    0.8901 C.ar    1  LIG1       0.15000000000000036
     10 C          -0.5387    0.4386   -0.5380 C.2     1  LIG1       0.41999999999999993
     11 C           0.8196    3.1372   -0.5617 C.2     1  LIG1       0.5999999999999996
     12 N           2.8245    1.9847   -1.4156 N.3     1  LIG1      -0.7599999999999998
     13 N           0.9405   -1.7337    1.0175 N.2     1  LIG1      -0.46999999999999975
     14 O           1.2334   -3.7937   -0.1118 O.2     1  LIG1      -0.5700000000000003
     15 O          -1.2617    1.2425   -1.1169 O.2     1  LIG1      -0.5299999999999994
     16 OXT         0.6964    3.2251    0.6421 O.2     1  LIG1      -0.5299999999999994
     17 O           0.6057    4.1806   -1.4006 O.3     1  LIG1      -0.5899999999999999
     18 H          -4.3675   -1.7830    0.7740 H       1  LIG1       0.16000000000000003
     19 H          -3.1284   -3.5629    2.0182 H       1  LIG1       0.17000000000000004
     20 H          -3.0817    0.0193   -0.3655 H       1  LIG1       0.16000000000000003
     21 H          -0.6538   -3.5032    2.1065 H       1  LIG1       0.17000000000000004
     22 H           1.3481    0.6448    0.4548 H       1  LIG1       0.19999999999999996
     23 H           1.4477   -0.2174   -1.0640 H       1  LIG1       0.18999999999999995
     24 H           2.7147   -2.7127    0.7128 H       1  LIG1       0.19999999999999996
     25 HA          0.9382    1.9148   -2.3120 H       1  LIG1       0.17000000000000004
     26 H1          3.0870    2.8186   -1.9393 H       1  LIG1       0.33999999999999997
     27 H2          3.2270    2.0888   -0.4838 H       1  LIG1       0.32999999999999996
     28 H           0.2639   -3.7583   -0.2239 H       1  LIG1       0.44999999999999996
     29 H           0.3255    4.9282   -0.8397 H       1  LIG1       0.43999999999999995
@<TRIPOS>BOND
     1    25     8    1
     2    26    12    1
     3    12     8    1
     4    12    27    1
     5    17    29    1
     6    17    11    1
     7     8     5    1
     8     8    11    1
     9    15    10    2
    10    23     5    1
    11     5    10    1
    12     5    22    1
    13    11    16    2
    14    10     7    1
    15    20     3    1
    16    28    14    1
    17    14     6    1
    18     3     7   ar
    19     3     1   ar
    20     7     9   ar
    21     6    24    1
    22     6    13    2
    23    18     1    1
    24     1     2   ar
    25     9    13    1
    26     9     4   ar
    27     2     4   ar
    28     2    19    1
    29     4    21    1
