@<TRIPOS>MOLECULE
BYHJHXPTQMMKCA-QMMMGPOBSA-N	6044379	-836.6313022897351
 29 29 0 0 0
SMALL
MULLIKEN NwChem

@<TRIPOS>ATOM
      1 C          -3.2801   -1.7734    0.8108 C.ar    1  LIG1      -0.15000000000000036
      2 C          -2.5886   -2.7675    1.5076 C.ar    1  LIG1      -0.13999999999999968
      3 C          -2.5643   -0.7694    0.1711 C.ar    1  LIG1      -0.1900000000000004
      4 C          -1.1978   -2.7493    1.5444 C.ar    1  LIG1      -0.17999999999999972
      5 C           0.9718    0.6342   -0.5698 C.3     1  LIG1       -0.3600000000000003
      6 C           1.6340   -2.7072    0.5664 C.2     1  LIG1          0.25
      7 C          -1.1588   -0.7205    0.1940 C.ar    1  LIG1       0.05999999999999961
      8 CA          1.3602    1.9170   -1.2999 C.3     1  LIG1       -0.03000000000000025
      9 C          -0.4608   -1.7401    0.8897 C.ar    1  LIG1       0.15000000000000036
     10 C          -0.5330    0.4343   -0.5422 C.2     1  LIG1       0.41999999999999993
     11 C           0.8154    3.1359   -0.5592 C.2     1  LIG1       0.5999999999999996
     12 N           2.8266    1.9915   -1.4120 N.3     1  LIG1      -0.7599999999999998
     13 N           0.9427   -1.7386    1.0153 N.2     1  LIG1      -0.46999999999999975
     14 O           1.2263   -3.7957   -0.1212 O.2     1  LIG1      -0.5700000000000003
     15 O          -1.2540    1.2329   -1.1295 O.2     1  LIG1      -0.5299999999999994
     16 OXT         0.6915    3.2231    0.6442 O.2     1  LIG1      -0.5299999999999994
     17 O           0.5923    4.1767   -1.3981 O.3     1  LIG1      -0.5899999999999999
     18 H          -4.3655   -1.7786    0.7755 H       1  LIG1       0.16000000000000003
     19 H          -3.1290   -3.5547    2.0266 H       1  LIG1       0.17000000000000004
     20 H          -3.0772    0.0191   -0.3696 H       1  LIG1       0.16000000000000003
     21 H          -0.6537   -3.4997    2.1118 H       1  LIG1       0.17000000000000004
     22 H           1.3509    0.6432    0.4580 H       1  LIG1       0.19999999999999996
     23 H           1.4560   -0.2153   -1.0629 H       1  LIG1       0.18999999999999995
     24 H           2.7131   -2.7223    0.7037 H       1  LIG1       0.19999999999999996
     25 HA          0.9412    1.9135   -2.3090 H       1  LIG1       0.17000000000000004
     26 H1          3.0855    2.8266   -1.9358 H       1  LIG1       0.33999999999999997
     27 H2          3.2294    2.0971   -0.4801 H       1  LIG1       0.32999999999999996
     28 H           0.2567   -3.7577   -0.2295 H       1  LIG1       0.44999999999999996
     29 H           0.3067    4.9228   -0.8374 H       1  LIG1       0.43999999999999995
@<TRIPOS>BOND
     1    25     8    1
     2    26    12    1
     3    12     8    1
     4    12    27    1
     5    17    29    1
     6    17    11    1
     7     8     5    1
     8     8    11    1
     9    15    10    2
    10    23     5    1
    11     5    10    1
    12     5    22    1
    13    11    16    2
    14    10     7    1
    15    20     3    1
    16    28    14    1
    17    14     6    1
    18     3     7   ar
    19     3     1   ar
    20     7     9   ar
    21     6    24    1
    22     6    13    2
    23    18     1    1
    24     1     2   ar
    25     9    13    1
    26     9     4   ar
    27     2     4   ar
    28     2    19    1
    29     4    21    1
