@<TRIPOS>MOLECULE
BZQFBWGGLXLEPQ-REOHCLBHSA-L	6044381	-965.6852487250567
 17 16 0 0 0
SMALL
MULLIKEN NwChem

@<TRIPOS>ATOM
      1 C1          0.6868    0.6630    0.1836 C.3     1  <1>        -0.03000000000000025
      2 C2         -0.4636    0.6622    1.2097 C.3     1  <1>        -0.09999999999999964
      3 C3         -0.5560    2.0312    1.9811 C.2     1  <1>        0.5300000000000002
      4 N1         -1.7535    0.3100    0.5603 N.3     1  <1>         -0.79
      5 O1         -1.7271    2.4857    2.1518 O.co2   1  <1>       -0.6699999999999999
      6 O2          0.5346    2.5235    2.3626 O.co2   1  <1>       -0.6699999999999999
      7 O3          1.4013   -2.1187    0.7471 O.3     1  <1>       -0.7200000000000006
      8 O4         -0.9777   -2.2610   -0.3174 O.3     1  <1>       -0.7799999999999994
      9 O5          1.0589   -2.6151   -1.8231 O.2     1  <1>       -0.6999999999999993
     10 O6          0.5410   -0.2873   -0.8730 O.3     1  <1>       -0.6199999999999992
     11 P1          0.6345   -1.9461   -0.5429 P.3     1  <1>        1.0399999999999991
     12 H1          1.6306    0.5220    0.7186 H       1  <1>           0.14
     13 H2          0.7200    1.6452   -0.3119 H       1  <1>           0.14
     14 H3         -0.2412   -0.1240    1.9437 H       1  <1>           0.14
     15 H4         -2.4147    0.9354    1.0387 H       1  <1>        0.31999999999999995
     16 H5         -1.7036    0.6367   -0.4064 H       1  <1>        0.32999999999999996
     17 H6         -1.3931   -1.4771    0.1265 H       1  <1>        0.43999999999999995
@<TRIPOS>BOND
     1     9    11    2
     2    10    11    1
     3    10     1    1
     4    11     8    1
     5    11     7    1
     6    16     4    1
     7     8    17    1
     8    13     1    1
     9     1    12    1
    10     1     2    1
    11     4    15    1
    12     4     2    1
    13     2    14    1
    14     2     3    1
    15     3     5   ar
    16     3     6   ar
