@<TRIPOS>MOLECULE
CABVTRNMFUVUDM-VRHQGPGLSA-I	11152721	-4362.665384084278
 97 99 0 0 0
SMALL
MULLIKEN NwChem

@<TRIPOS>ATOM
      1 C           0.8792    0.9706   -0.7954 C.3     1  LIG1      -0.46999999999999975
      2 C           0.1230    2.9673    0.5534 C.3     1  LIG1      -0.46999999999999975
      3 C          14.7256   -1.7012   -5.0013 C.3     1  LIG1      -0.46999999999999975
      4 C           5.7092    0.3254   -0.3381 C.3     1  LIG1       -0.3600000000000003
      5 C           4.1718    0.4358   -0.3417 C.3     1  LIG1       -0.1200000000000001
      6 C           8.5262    0.3150   -0.6411 C.3     1  LIG1       -0.11000000000000032
      7 C          10.0203    0.6089   -0.8501 C.3     1  LIG1       -0.41000000000000014
      8 C          15.3657   -1.4353   -2.5695 C.3     1  LIG1       -0.3899999999999997
      9 C          12.9119   -1.2091   -3.3577 C.3     1  LIG1       -0.3600000000000003
     10 C          -7.1070    0.5444    3.0023 C.3     1  LIG1       -0.05999999999999961
     11 C          -0.3789    0.6497    1.3652 C.3     1  LIG1       -0.05999999999999961
     12 C          -4.7320   -2.1796   -1.2528 C.ar    1  LIG1       0.1900000000000004
     13 C          -9.1010   -2.2676   -1.2277 C.ar    1  LIG1       0.21999999999999975
     14 C          -8.0238    1.0413    1.8996 C.3     1  LIG1       0.11000000000000032
     15 C           6.4212    1.0203   -1.5424 C.2     1  LIG1       0.46999999999999975
     16 C          16.8760   -1.1691   -2.8738 C.2     1  LIG1       0.5499999999999998
     17 C          12.2837   -0.4796   -2.1637 C.2     1  LIG1       0.2699999999999996
     18 C          -7.2002   -3.0554   -1.7301 C.ar    1  LIG1       0.17999999999999972
     19 C          -9.6135   -0.6525    1.2207 C.3     1  LIG1       0.17999999999999972
     20 C          -9.5095    0.6589    2.0802 C.3     1  LIG1       0.040000000000000036
     21 C           1.9843    1.5217    1.4435 C.3     1  LIG1       0.05999999999999961
     22 C          -6.0904   -3.7649   -2.2013 C.ar    1  LIG1       0.4400000000000004
     23 C          -6.9411   -1.8652   -1.0115 C.ar    1  LIG1       0.5599999999999996
     24 C           2.6649    0.1043    1.5330 C.2     1  LIG1       0.45999999999999996
     25 C          -8.6576   -0.2093    0.0677 C.3     1  LIG1       0.28000000000000025
     26 C           0.6442    1.5189    0.6204 C.3     1  LIG1       0.05999999999999961
     27 C          14.4028   -0.9556   -3.6827 C.3     1  LIG1       0.33000000000000007
     28 N          -6.2386   -4.9536   -2.8983 N.pl3   1  LIG1      -0.7800000000000002
     29 N           7.7590    1.0003   -1.6359 N.am    1  LIG1      -0.6200000000000001
     30 N           3.5815   -0.3552    0.7301 N.am    1  LIG1      -0.5999999999999996
     31 N          -4.8508   -3.3177   -1.9599 N.ar    1  LIG1        -0.54
     32 N          -5.7000   -1.3991   -0.7591 N.ar    1  LIG1      -0.5899999999999999
     33 N          -8.5541   -3.2893   -1.8628 N.ar    1  LIG1      -0.5800000000000001
     34 N          -8.1873   -1.3758   -0.7000 N.ar    1  LIG1      -0.5300000000000002
     35 O           5.6857    1.5899   -2.3896 O.2     1  LIG1      -0.7100000000000009
     36 O          17.1296   -0.0977   -3.5263 O.co2   1  LIG1      -0.6699999999999999
     37 O          17.7045   -1.9979   -2.4405 O.co2   1  LIG1      -0.6600000000000001
     38 O          12.8350   -0.3482   -1.0842 O.2     1  LIG1      -0.4800000000000004
     39 O         -10.8037   -1.1204    0.8237 O.3     1  LIG1      -0.7599999999999998
     40 O           1.7215    1.9257    2.7885 O.3     1  LIG1      -0.7100000000000009
     41 O           2.1685   -0.5414    2.5373 O.2     1  LIG1      -0.7300000000000004
     42 O          14.5702    0.4397   -3.9000 O.3     1  LIG1      -0.7400000000000002
     43 O         -12.6185    0.7569    1.0845 O.3     1  LIG1      -0.7699999999999996
     44 O         -12.3567    3.2395    1.6748 O.2     1  LIG1      -0.6999999999999993
     45 O         -11.9588    1.4042    3.5220 O.3     1  LIG1      -0.7200000000000006
     46 O          -4.4493   -0.9819    3.7553 O.3     1  LIG1      -0.7100000000000009
     47 O          -4.4104    1.3453    4.8838 O.2     1  LIG1      -0.5800000000000001
     48 O          -4.0612    0.6543    0.0826 O.3     1  LIG1      -0.6899999999999995
     49 O          -3.1144   -1.3362    1.4632 O.2     1  LIG1      -0.6699999999999999
     50 O          -5.7581    0.9557    2.6645 O.3     1  LIG1      -0.5500000000000007
     51 O          -1.6738    0.7289    0.6318 O.3     1  LIG1      -0.5099999999999998
     52 O          -7.5693    0.4627    0.6412 O.3     1  LIG1      -0.5399999999999991
     53 O         -10.2956    1.7092    1.5568 O.3     1  LIG1      -0.6400000000000006
     54 O          -3.3065    0.9788    2.5477 O.3     1  LIG1      -0.6199999999999992
     55 P         -11.9261    1.8531    2.0766 P.3     1  LIG1           1.0
     56 P          -4.5029    0.6132    3.6043 P.3     1  LIG1       1.2300000000000004
     57 P          -3.0266    0.1305    1.1576 P.3     1  LIG1       1.2699999999999996
     58 S          10.5940    0.0361   -2.5151 S.3     1  LIG1      0.05000000000000071
     59 H           1.6291    1.5727   -1.3199 H       1  LIG1       0.15000000000000002
     60 H           1.2615   -0.0539   -0.7524 H       1  LIG1       0.15000000000000002
     61 H          -0.0513    0.9850   -1.3764 H       1  LIG1       0.15000000000000002
     62 H           0.0244    3.3739    1.5656 H       1  LIG1       0.15000000000000002
     63 H          -0.8497    3.0233    0.0513 H       1  LIG1       0.15000000000000002
     64 H           0.8339    3.5936   -0.0013 H       1  LIG1       0.15000000000000002
     65 H          15.7657   -1.4938   -5.2707 H       1  LIG1          0.14
     66 H          14.0757   -1.3365   -5.8069 H       1  LIG1          0.14
     67 H          14.5941   -2.7886   -4.9063 H       1  LIG1          0.14
     68 H           5.9835   -0.7409   -0.3038 H       1  LIG1          0.13
     69 H           6.0884    0.7372    0.6120 H       1  LIG1          0.13
     70 H           3.9190    1.5100   -0.3406 H       1  LIG1       0.10999999999999999
     71 H           3.8245    0.0738   -1.3225 H       1  LIG1       0.09999999999999998
     72 H           8.3307    0.6257    0.4154 H       1  LIG1       0.10999999999999999
     73 H           8.4058   -0.7939   -0.6263 H       1  LIG1       0.10999999999999999
     74 H          10.1838    1.6905   -0.8148 H       1  LIG1       0.18000000000000005
     75 H          10.6702    0.1206   -0.1147 H       1  LIG1       0.18000000000000005
     76 H          15.2288   -2.5068   -2.3748 H       1  LIG1          0.13
     77 H          15.0942   -0.9031   -1.6519 H       1  LIG1       0.16000000000000003
     78 H          12.7752   -2.2824   -3.1573 H       1  LIG1       0.18999999999999995
     79 H          12.3196   -0.9795   -4.2519 H       1  LIG1       0.17000000000000004
     80 H          -7.3939    0.9886    3.9629 H       1  LIG1       0.18999999999999995
     81 H          -7.1388   -0.5475    3.0754 H       1  LIG1       0.18999999999999995
     82 H          -0.0677   -0.3943    1.4117 H       1  LIG1       0.18000000000000005
     83 H          -0.5430    1.0327    2.3733 H       1  LIG1       0.18000000000000005
     84 H          -3.7172   -1.8548   -1.0505 H       1  LIG1       0.18000000000000005
     85 H         -10.1492   -2.0949   -0.9995 H       1  LIG1       0.19999999999999996
     86 H          -7.9302    2.1287    1.8172 H       1  LIG1       0.16000000000000003
     87 H          -8.9951   -1.4081    1.7894 H       1  LIG1       0.06999999999999995
     88 H          -9.7775    0.4706    3.1280 H       1  LIG1       0.15000000000000002
     89 H           2.6387    2.2683    0.9772 H       1  LIG1          0.13
     90 H          -9.2169    0.4362   -0.6240 H       1  LIG1       0.15000000000000002
     91 H          -5.4400   -5.1779   -3.4789 H       1  LIG1          0.36
     92 H          -7.1395   -5.0501   -3.3502 H       1  LIG1          0.37
     93 H         -11.9557   -0.0087    0.9592 H       1  LIG1       0.43000000000000005
     94 H           1.7527    1.0117    3.1991 H       1  LIG1           0.4
     95 H          15.5654    0.5298   -3.8279 H       1  LIG1           0.4
     96 H          -4.0199   -1.3832    2.9446 H       1  LIG1          0.49
     97 H          -4.8487    0.0392   -0.0483 H       1  LIG1           0.48
@<TRIPOS>BOND
     1    66     3    1
     2    65     3    1
     3     3    67    1
     4     3    27    1
     5    79     9    1
     6    42    95    1
     7    42    27    1
     8    27     9    1
     9    27     8    1
    10    36    16   ar
    11    91    28    1
    12     9    78    1
    13     9    17    1
    14    92    28    1
    15    28    22    1
    16    16     8    1
    17    16    37   ar
    18     8    76    1
    19     8    77    1
    20    58    17    1
    21    58     7    1
    22    35    15    2
    23    22    31   ar
    24    22    18   ar
    25    17    38    2
    26    31    12   ar
    27    33    18   ar
    28    33    13   ar
    29    18    23   ar
    30    29    15   am
    31    29     6    1
    32    15     4    1
    33    61     1    1
    34    71     5    1
    35    59     1    1
    36    12    84    1
    37    12    32   ar
    38    13    85    1
    39    13    34   ar
    40    23    32   ar
    41    23    34   ar
    42     7    74    1
    43     7     6    1
    44     7    75    1
    45     1    60    1
    46     1    26    1
    47    34    25    1
    48     6    73    1
    49     6    72    1
    50    90    25    1
    51     5    70    1
    52     5     4    1
    53     5    30    1
    54     4    68    1
    55     4    69    1
    56    97    48    1
    57    64     2    1
    58    63     2    1
    59    25    52    1
    60    25    19    1
    61    48    57    1
    62     2    26    1
    63     2    62    1
    64    26    11    1
    65    26    21    1
    66    51    57    1
    67    51    11    1
    68    52    14    1
    69    30    24   am
    70    39    19    1
    71    93    43    1
    72    89    21    1
    73    43    55    1
    74    57    49    2
    75    57    54    1
    76    19    87    1
    77    19    20    1
    78    11    82    1
    79    11    83    1
    80    21    24    1
    81    21    40    1
    82    24    41    2
    83    53    55    1
    84    53    20    1
    85    44    55    2
    86    86    14    1
    87    14    20    1
    88    14    10    1
    89    55    45    1
    90    20    88    1
    91    54    56    1
    92    50    10    1
    93    50    56    1
    94    40    94    1
    95    96    46    1
    96    10    81    1
    97    10    80    1
    98    56    46    1
    99    56    47    2
