@<TRIPOS>MOLECULE
CAHGCLMLTWQZNJ-BQNIITSRSA-N	6044383	-1247.896202621523
 81 84 0 0 0
SMALL
MULLIKEN NwChem

@<TRIPOS>ATOM
      1 C          -2.3599   -4.1030   -6.0355 C.3     1  LIG1      -0.5300000000000002
      2 C          -1.2614   -2.3028   -7.4459 C.3     1  LIG1      -0.5199999999999996
      3 C          -3.4336    0.5483   -3.0190 C.3     1  LIG1      -0.4800000000000004
      4 C           4.3506    0.5279    4.6190 C.3     1  LIG1      -0.45999999999999996
      5 C           2.3991    1.4379    5.8460 C.3     1  LIG1      -0.4800000000000004
      6 C          -0.1510    1.8355    3.8777 C.3     1  LIG1      -0.4900000000000002
      7 C          -0.1953    0.7520   -2.0417 C.3     1  LIG1      -0.4900000000000002
      8 C           1.2357   -1.3830   -0.8770 C.3     1  LIG1      -0.4800000000000004
      9 C          -4.0743   -1.8805   -4.7319 C.3     1  LIG1      -0.3200000000000003
     10 C          -3.0278   -1.6827   -5.8041 C.2     1  LIG1      -0.1900000000000004
     11 C          -3.4912   -1.9627   -3.3025 C.3     1  LIG1      -0.2599999999999998
     12 C           1.3706   -1.1987    2.1185 C.3     1  LIG1      -0.34999999999999964
     13 C           1.7441   -0.6286    3.4877 C.3     1  LIG1      -0.29000000000000004
     14 C          -1.6560   -2.3521   -1.0466 C.3     1  LIG1      -0.2999999999999998
     15 C          -0.5332    1.9246    0.7507 C.3     1  LIG1      -0.34999999999999964
     16 C           2.3614    3.7247    3.6166 C.3     1  LIG1      -0.29000000000000004
     17 C           1.5450    3.0950    2.4777 C.3     1  LIG1      -0.2999999999999998
     18 C          -0.8741   -2.1400    0.2465 C.3     1  LIG1      -0.29000000000000004
     19 C          -1.5777    1.0932    0.0172 C.3     1  LIG1      -0.2999999999999998
     20 C          -2.2764   -2.6351   -6.3785 C.2     1  LIG1      0.17999999999999972
     21 C          -2.6301   -0.7560   -2.8703 C.3     1  LIG1      -0.07000000000000028
     22 C          -2.1177   -0.9315   -1.4199 C.3     1  LIG1      -0.09999999999999964
     23 C           0.3730    1.0373    1.5804 C.2     1  LIG1      0.05999999999999961
     24 C           0.5525   -0.2574    1.2466 C.2     1  LIG1      0.08000000000000007
     25 C           2.1975    0.8227    3.3137 C.3     1  LIG1      -0.1299999999999999
     26 C           3.5318    2.8371    4.0658 C.3     1  LIG1       0.1299999999999999
     27 C           3.0836    1.3989    4.4638 C.3     1  LIG1      0.08999999999999986
     28 C           0.9894    1.6896    2.8356 C.3     1  LIG1      0.04999999999999982
     29 C          -0.9547    0.0306   -0.9096 C.3     1  LIG1      0.11000000000000032
     30 C           0.0136   -0.8998   -0.0457 C.3     1  LIG1      0.03000000000000025
     31 O           4.5607    2.8284    3.0669 O.3     1  LIG1      -0.6899999999999995
     32 H          -2.4968   -4.7115   -6.9406 H       1  LIG1       0.16000000000000003
     33 H          -3.1662   -4.3400   -5.3371 H       1  LIG1       0.16000000000000003
     34 H          -1.4175   -4.4410   -5.5808 H       1  LIG1       0.16000000000000003
     35 H          -1.1787   -1.2244   -7.6202 H       1  LIG1       0.16000000000000003
     36 H          -0.2665   -2.6883   -7.1838 H       1  LIG1       0.16000000000000003
     37 H          -1.5315   -2.7778   -8.3995 H       1  LIG1       0.16000000000000003
     38 H          -4.3774    0.4766   -2.4622 H       1  LIG1          0.14
     39 H          -2.8941    1.4151   -2.6302 H       1  LIG1       0.16000000000000003
     40 H          -3.6773    0.7605   -4.0655 H       1  LIG1       0.15000000000000002
     41 H           4.8227    0.3143    3.6560 H       1  LIG1          0.14
     42 H           5.0919    1.0492    5.2355 H       1  LIG1          0.14
     43 H           4.1214   -0.4227    5.1117 H       1  LIG1       0.15000000000000002
     44 H           3.1486    1.6403    6.6211 H       1  LIG1          0.14
     45 H           1.6308    2.2064    5.9297 H       1  LIG1       0.16000000000000003
     46 H           1.9318    0.4753    6.0822 H       1  LIG1       0.15000000000000002
     47 H          -0.4680    0.8641    4.2665 H       1  LIG1       0.15000000000000002
     48 H           0.1215    2.4645    4.7261 H       1  LIG1       0.15000000000000002
     49 H          -1.0290    2.2975    3.4149 H       1  LIG1       0.15000000000000002
     50 H           0.6795    1.2808   -1.6508 H       1  LIG1       0.15000000000000002
     51 H           0.1619    0.0678   -2.8150 H       1  LIG1       0.15000000000000002
     52 H          -0.8304    1.4955   -2.5317 H       1  LIG1          0.14
     53 H           1.7738   -2.1728   -0.3454 H       1  LIG1       0.15000000000000002
     54 H           0.9315   -1.8016   -1.8397 H       1  LIG1       0.15000000000000002
     55 H           1.9437   -0.5722   -1.0725 H       1  LIG1       0.15000000000000002
     56 H          -4.8054   -1.0644   -4.7881 H       1  LIG1          0.14
     57 H          -4.6439   -2.8000   -4.9176 H       1  LIG1          0.14
     58 H          -2.8549   -0.6516   -6.1148 H       1  LIG1          0.12
     59 H          -4.3173   -2.0908   -2.5863 H       1  LIG1          0.12
     60 H          -2.8857   -2.8743   -3.2492 H       1  LIG1          0.14
     61 H           0.8326   -2.1460    2.2462 H       1  LIG1       0.15000000000000002
     62 H           2.3016   -1.4604    1.5946 H       1  LIG1       0.15000000000000002
     63 H           2.5331   -1.2461    3.9263 H       1  LIG1          0.14
     64 H           0.8908   -0.6877    4.1728 H       1  LIG1          0.14
     65 H          -2.4939   -3.0461   -0.9230 H       1  LIG1          0.14
     66 H          -1.0076   -2.7754   -1.8245 H       1  LIG1          0.14
     67 H          -1.0484    2.6489    1.3922 H       1  LIG1       0.15000000000000002
     68 H           0.0513    2.5334    0.0469 H       1  LIG1       0.15000000000000002
     69 H           2.7718    4.6865    3.2879 H       1  LIG1          0.14
     70 H           1.7095    3.9399    4.4712 H       1  LIG1       0.15000000000000002
     71 H           0.7331    3.7756    2.2001 H       1  LIG1          0.14
     72 H           2.1777    3.0041    1.5817 H       1  LIG1          0.13
     73 H          -0.2925   -3.0189    0.5410 H       1  LIG1          0.14
     74 H          -1.5659   -1.9154    1.0690 H       1  LIG1          0.13
     75 H          -2.2504    1.7411   -0.5589 H       1  LIG1          0.13
     76 H          -2.1973    0.5909    0.7714 H       1  LIG1          0.13
     77 H          -1.7699   -0.7190   -3.5514 H       1  LIG1          0.12
     78 H          -2.9855   -0.7291   -0.7731 H       1  LIG1          0.12
     79 H           2.8721    0.8070    2.4388 H       1  LIG1       0.10999999999999999
     80 H           4.0182    3.2942    4.9364 H       1  LIG1          0.13
     81 H           4.1951    2.4256    2.2644 H       1  LIG1       0.42000000000000004
@<TRIPOS>BOND
     1    37     2    1
     2    35     2    1
     3     2    36    1
     4     2    20    1
     5    32     1    1
     6    20     1    1
     7    20    10    2
     8    58    10    1
     9     1    34    1
    10     1    33    1
    11    10     9    1
    12    57     9    1
    13    56     9    1
    14     9    11    1
    15    40     3    1
    16    77    21    1
    17    11    60    1
    18    11    21    1
    19    11    59    1
    20     3    21    1
    21     3    39    1
    22     3    38    1
    23    21    22    1
    24    51     7    1
    25    52     7    1
    26     7    50    1
    27     7    29    1
    28    54     8    1
    29    66    14    1
    30    22    14    1
    31    22    29    1
    32    22    78    1
    33    55     8    1
    34    14    65    1
    35    14    18    1
    36    29    30    1
    37    29    19    1
    38     8    53    1
    39     8    30    1
    40    75    19    1
    41    30    18    1
    42    30    24    1
    43    19    15    1
    44    19    76    1
    45    68    15    1
    46    18    73    1
    47    18    74    1
    48    15    67    1
    49    15    23    1
    50    24    23    2
    51    24    12    1
    52    23    28    1
    53    72    17    1
    54    62    12    1
    55    12    61    1
    56    12    13    1
    57    71    17    1
    58    81    31    1
    59    79    25    1
    60    17    28    1
    61    17    16    1
    62    28    25    1
    63    28     6    1
    64    31    26    1
    65    69    16    1
    66    25    13    1
    67    25    27    1
    68    49     6    1
    69    13    63    1
    70    13    64    1
    71    16    26    1
    72    16    70    1
    73    41     4    1
    74     6    47    1
    75     6    48    1
    76    26    27    1
    77    26    80    1
    78    27     4    1
    79    27     5    1
    80     4    43    1
    81     4    42    1
    82     5    45    1
    83     5    46    1
    84     5    44    1
