@<TRIPOS>MOLECULE
CAOMCZAIALVUPA-UHFFFAOYSA-M	6044384	-705.3424198652573
 14 13 0 0 0
SMALL
MULLIKEN NwChem

@<TRIPOS>ATOM
      1 C           0.1601    0.1256   -1.9045 C.3     1  LIG1      -0.5899999999999999
      2 C          -0.4402    0.0331    1.2752 C.3     1  LIG1       -0.33999999999999986
      3 C           0.2279    1.2812    0.7008 C.3     1  LIG1       -0.40000000000000036
      4 C           0.2329   -1.3057    0.7768 C.2     1  LIG1          0.54
      5 O           1.4886   -1.2592    0.6785 O.co2   1  LIG1      -0.6699999999999999
      6 O          -0.5548   -2.2521    0.5404 O.co2   1  LIG1      -0.6799999999999997
      7 S          -0.2414    1.6964   -1.0416 S.3     1  LIG1      -0.030000000000001137
      8 H           0.0885    0.3229   -2.9796 H       1  LIG1       0.18999999999999995
      9 H          -0.5366   -0.6643   -1.6151 H       1  LIG1       0.18000000000000005
     10 H           1.1659   -0.2019   -1.6336 H       1  LIG1       0.18999999999999995
     11 H          -0.3147    0.0655    2.3700 H       1  LIG1       0.15000000000000002
     12 H          -1.5158    0.0172    1.0662 H       1  LIG1          0.13
     13 H           1.3105    1.1263    0.7428 H       1  LIG1       0.17000000000000004
     14 H          -0.0299    2.1959    1.2523 H       1  LIG1       0.17000000000000004
@<TRIPOS>BOND
     1     8     1    1
     2     1    10    1
     3     1     9    1
     4     1     7    1
     5     7     3    1
     6     6     4   ar
     7     5     4   ar
     8     3    13    1
     9     3    14    1
    10     3     2    1
    11     4     2    1
    12    12     2    1
    13     2    11    1
