@<TRIPOS>MOLECULE
CAOVWYZQMPNAFJ-UHFFFAOYSA-M	11152719	-741.5601619489113
 23 23 0 0 0
SMALL
MULLIKEN NwChem

@<TRIPOS>ATOM
      1 C          -2.6665   -1.5871    0.1831 C.ar    1  LIG1      -0.17999999999999972
      2 C          -3.6775   -0.6909    0.5525 C.ar    1  LIG1      -0.15000000000000036
      3 C          -1.3869   -1.1014   -0.0551 C.ar    1  LIG1      -0.20000000000000018
      4 C          -3.3875    0.6540    0.7274 C.ar    1  LIG1      -0.20000000000000018
      5 C           1.0482    0.0762   -1.4618 C.3     1  LIG1       -0.41000000000000014
      6 C          -1.0697    0.2627    0.0643 C.ar    1  LIG1       0.03000000000000025
      7 C          -2.0815    1.1545    0.5270 C.ar    1  LIG1          0.25
      8 C           0.2585    0.7898   -0.3748 C.2     1  LIG1       0.4299999999999997
      9 C           2.4884   -0.2677   -1.0157 C.2     1  LIG1       0.3600000000000003
     10 C           2.5342   -1.1464    0.2868 C.2     1  LIG1           0.5
     11 N          -1.8165    2.4811    0.8171 N.pl3   1  LIG1      -0.8300000000000001
     12 O           0.6505    1.9164   -0.0401 O.2     1  LIG1      -0.5700000000000003
     13 O           3.4527    0.1037   -1.6502 O.2     1  LIG1      -0.4900000000000002
     14 O           1.4346   -1.1042    0.9140 O.co2   1  LIG1      -0.6199999999999992
     15 O           3.5869   -1.7595    0.5187 O.co2   1  LIG1      -0.6400000000000006
     16 H          -2.8748   -2.6499    0.0926 H       1  LIG1       0.15000000000000002
     17 H          -4.6911   -1.0473    0.7278 H       1  LIG1       0.16000000000000003
     18 H          -0.5779   -1.7849   -0.2833 H       1  LIG1       0.16000000000000003
     19 H          -4.1621    1.3446    1.0585 H       1  LIG1       0.15000000000000002
     20 H           1.1159    0.7552   -2.3187 H       1  LIG1       0.18000000000000005
     21 H           0.5651   -0.8505   -1.7855 H       1  LIG1       0.18999999999999995
     22 H          -0.8790    2.7793    0.5534 H       1  LIG1          0.37
     23 H          -2.5714    3.1354    0.6619 H       1  LIG1           0.36
@<TRIPOS>BOND
     1    20     5    1
     2    21     5    1
     3    13     9    2
     4     5     9    1
     5     5     8    1
     6     9    10    1
     7     8    12    2
     8     8     6    1
     9    18     3    1
    10     3     6   ar
    11     3     1   ar
    12     6     7   ar
    13    16     1    1
    14     1     2   ar
    15    10    15   ar
    16    10    14   ar
    17     7     4   ar
    18     7    11    1
    19     2     4   ar
    20     2    17    1
    21    22    11    1
    22    23    11    1
    23     4    19    1
