@<TRIPOS>MOLECULE
CBIDRCWHNCKSTO-UHFFFAOYSA-K	11152639	-1405.68505334489
 23 22 0 0 0
SMALL
MULLIKEN NwChem

@<TRIPOS>ATOM
      1 C          -4.1950   -0.5143    2.5164 C.3     1  LIG1      -0.5199999999999996
      2 C          -2.2804    1.1606    2.2953 C.3     1  LIG1      -0.5800000000000001
      3 C          -2.0531   -1.2204    1.4737 C.2     1  LIG1      -0.20999999999999996
      4 C          -0.6299   -1.1682    0.9894 C.3     1  LIG1       -0.1200000000000001
      5 C          -2.7757   -0.2478    2.0556 C.2     1  LIG1      0.1900000000000004
      6 O           2.4841    2.1002   -0.5627 O.3     1  LIG1      -0.7699999999999996
      7 O           0.3815    1.7107    0.9031 O.3     1  LIG1      -0.7300000000000004
      8 O           0.1368    2.8176   -1.4293 O.2     1  LIG1      -0.7699999999999996
      9 O           0.6547   -1.9654   -2.5213 O.2     1  LIG1      -0.7200000000000006
     10 O           1.9930   -1.7325   -0.2800 O.3     1  LIG1      -0.7599999999999998
     11 O          -0.5903   -1.7048   -0.3211 O.3     1  LIG1      -0.6300000000000008
     12 O           0.6818    0.3027   -1.3292 O.3     1  LIG1      -0.6999999999999993
     13 P           0.9690    1.9023   -0.5259 P.3     1  LIG1       0.9299999999999997
     14 P           0.8560   -1.2794   -1.1797 P.3     1  LIG1       1.0500000000000007
     15 H          -4.3167   -0.3315    3.6013 H       1  LIG1       0.15000000000000002
     16 H          -4.5121   -1.5482    2.3165 H       1  LIG1       0.15000000000000002
     17 H          -4.9159    0.1606    2.0212 H       1  LIG1       0.15000000000000002
     18 H          -1.3392    1.4005    1.7523 H       1  LIG1       0.19999999999999996
     19 H          -2.1310    1.3421    3.3778 H       1  LIG1          0.14
     20 H          -3.0511    1.8848    1.9751 H       1  LIG1          0.14
     21 H          -2.5421   -2.1915    1.3144 H       1  LIG1       0.10999999999999999
     22 H          -0.2198   -0.1445    1.0237 H       1  LIG1       0.19999999999999996
     23 H          -0.0140   -1.7886    1.6789 H       1  LIG1       0.09999999999999998
@<TRIPOS>BOND
     1     9    14    2
     2     8    13    2
     3    12    14    1
     4    12    13    1
     5    14    11    1
     6    14    10    1
     7     6    13    1
     8    13     7    1
     9    11     4    1
    10     4    22    1
    11     4     3    1
    12     4    23    1
    13    21     3    1
    14     3     5    2
    15    18     2    1
    16    20     2    1
    17    17     1    1
    18     5     2    1
    19     5     1    1
    20     2    19    1
    21    16     1    1
    22     1    15    1
