@<TRIPOS>MOLECULE
CCVYRRGZDBSHFU-UHFFFAOYSA-M	6044388	-534.7779843253071
 18 18 0 0 0
SMALL
MULLIKEN NwChem

@<TRIPOS>ATOM
      1 C          -2.5570   -1.1671   -0.4521 C.3     1  LIG1       -0.20999999999999996
      2 C          -1.7600   -2.3173   -0.3489 C.2     1  LIG1      -0.16999999999999993
      3 C          -1.9132    0.0804   -0.4758 C.2     1  LIG1      -0.2400000000000002
      4 C          -0.3745   -2.2380   -0.2660 C.2     1  LIG1      -0.2699999999999996
      5 C           0.1989    1.5016   -0.4883 C.3     1  LIG1       -0.41999999999999993
      6 C          -0.5311    0.1868   -0.4006 C.2     1  LIG1       0.04999999999999982
      7 C           0.3227   -0.9782   -0.2817 C.2     1  LIG1       0.33999999999999986
      8 C           1.2965    1.6946    0.5418 C.2     1  LIG1       0.6100000000000003
      9 O           1.5857   -0.8521   -0.1939 O.2     1  LIG1        -0.75
     10 O           2.3585    2.2591    0.3537 O.2     1  LIG1      -0.5500000000000007
     11 O           0.9094    1.3303    1.7982 O.3     1  LIG1      -0.5999999999999996
     12 H          -3.6416   -1.2371   -0.5106 H       1  LIG1       0.10999999999999999
     13 H          -2.2389   -3.2992   -0.3293 H       1  LIG1          0.12
     14 H          -2.5117    0.9916   -0.5576 H       1  LIG1          0.12
     15 H           0.2337   -3.1380   -0.1827 H       1  LIG1       0.08999999999999997
     16 H           0.7053    1.6267   -1.4540 H       1  LIG1       0.16000000000000003
     17 H          -0.5029    2.3417   -0.3719 H       1  LIG1       0.18000000000000005
     18 H           1.7059    1.4694    2.3407 H       1  LIG1       0.43000000000000005
@<TRIPOS>BOND
     1    16     5    1
     2    14     3    1
     3    12     1    1
     4     5     6    1
     5     5    17    1
     6     5     8    1
     7     3     1    1
     8     3     6    2
     9     1     2    1
    10     6     7    1
    11     2    13    1
    12     2     4    2
    13     7     4    1
    14     7     9    2
    15     4    15    1
    16    10     8    2
    17     8    11    1
    18    11    18    1
