@<TRIPOS>MOLECULE
CDAISMWEOUEBRE-GPIVLXJGSA-N	6044389	-687.0196633239434
 24 24 0 0 0
SMALL
MULLIKEN NwChem

@<TRIPOS>ATOM
      1 C           0.7974    1.2897   -0.4222 C.3     1  LIG1       0.08999999999999986
      2 C           1.3986   -0.1067   -0.2158 C.3     1  LIG1       0.1200000000000001
      3 C          -0.5895    1.4038    0.2171 C.3     1  LIG1       0.08999999999999986
      4 C           0.4667   -1.1895   -0.7436 C.3     1  LIG1       0.09999999999999964
      5 C          -1.5170    0.2742   -0.2425 C.3     1  LIG1       0.11000000000000032
      6 C          -0.8788   -1.0974   -0.0343 C.3     1  LIG1       0.11000000000000032
      7 O           1.6902    2.2766    0.0866 O.3     1  LIG1      -0.6799999999999997
      8 O           2.6362   -0.2320   -0.9060 O.3     1  LIG1      -0.6899999999999995
      9 O          -0.3881    1.3420    1.6297 O.3     1  LIG1      -0.6799999999999997
     10 O           0.9766   -2.4955   -0.4978 O.3     1  LIG1      -0.6899999999999995
     11 O          -2.7131    0.3910    0.5239 O.3     1  LIG1      -0.6899999999999995
     12 O          -1.8094   -2.0577   -0.5228 O.3     1  LIG1      -0.6899999999999995
     13 H           0.7184    1.4761   -1.4996 H       1  LIG1       0.16000000000000003
     14 H           1.5412   -0.2676    0.8638 H       1  LIG1          0.14
     15 H          -1.0388    2.3701   -0.0564 H       1  LIG1       0.15000000000000002
     16 H           0.3175   -1.0371   -1.8257 H       1  LIG1          0.14
     17 H          -1.7328    0.3967   -1.3162 H       1  LIG1       0.15000000000000002
     18 H          -0.7109   -1.2409    1.0434 H       1  LIG1          0.14
     19 H           1.5371    2.2959    1.0479 H       1  LIG1       0.43000000000000005
     20 H           3.1617    0.5449   -0.6493 H       1  LIG1       0.43000000000000005
     21 H          -1.2710    1.2166    2.0183 H       1  LIG1       0.43000000000000005
     22 H           1.8920   -2.4981   -0.8227 H       1  LIG1       0.43000000000000005
     23 H          -3.1838   -0.4535    0.4197 H       1  LIG1       0.43000000000000005
     24 H          -1.3661   -2.9207   -0.4703 H       1  LIG1       0.43000000000000005
@<TRIPOS>BOND
     1    16     4    1
     2    13     1    1
     3    17     5    1
     4     8    20    1
     5     8     2    1
     6    22    10    1
     7     4    10    1
     8     4     2    1
     9     4     6    1
    10    12    24    1
    11    12     6    1
    12     1     2    1
    13     1     7    1
    14     1     3    1
    15     5     6    1
    16     5     3    1
    17     5    11    1
    18     2    14    1
    19    15     3    1
    20     6    18    1
    21     7    19    1
    22     3     9    1
    23    23    11    1
    24     9    21    1
