@<TRIPOS>MOLECULE
CFFZDZCDUFSOFZ-UHFFFAOYSA-M	6044390	-609.9890401476816
 19 19 0 0 0
SMALL
MULLIKEN NwChem

@<TRIPOS>ATOM
      1 C          -1.4036    0.7972    0.3435 C.2     1  LIG1      -0.21999999999999975
      2 C          -0.8175    2.0520    0.4823 C.2     1  LIG1      -0.29000000000000004
      3 C           0.7588   -0.2301    0.5581 C.2     1  LIG1      -0.29000000000000004
      4 C          -1.2557   -1.7476    0.2117 C.3     1  LIG1       -0.41999999999999993
      5 C          -0.6396   -0.3743    0.3904 C.3     1  LIG1       0.09999999999999964
      6 C           0.5986    2.2625    0.6669 C.2     1  LIG1       0.34999999999999964
      7 C           1.3538    1.0093    0.6912 C.2     1  LIG1       0.20999999999999996
      8 C          -0.8800   -2.3005   -1.1435 C.2     1  LIG1       0.5800000000000001
      9 O           1.1429    3.3920    0.7979 O.2     1  LIG1      -0.7599999999999998
     10 O           2.7278    1.1377    0.8638 O.2     1  LIG1      -0.7100000000000009
     11 O           0.0800   -3.0062   -1.3940 O.2     1  LIG1      -0.5199999999999996
     12 O          -1.7154   -1.8695   -2.1353 O.3     1  LIG1      -0.5899999999999999
     13 H          -2.4838    0.7201    0.2018 H       1  LIG1          0.12
     14 H          -1.4310    2.9516    0.4597 H       1  LIG1       0.08999999999999997
     15 H           1.3832   -1.1285    0.5712 H       1  LIG1          0.13
     16 H          -0.8934   -2.4680    0.9575 H       1  LIG1       0.17000000000000004
     17 H          -2.3475   -1.6853    0.2841 H       1  LIG1       0.18000000000000005
     18 H           3.0903    0.2387    0.8312 H       1  LIG1       0.43000000000000005
     19 H          -1.3043   -2.1829   -2.9618 H       1  LIG1       0.43999999999999995
@<TRIPOS>BOND
     1    19    12    1
     2    12     8    1
     3    11     8    2
     4     8     4    1
     5    13     1    1
     6     4    17    1
     7     4     5    1
     8     4    16    1
     9     1     5    1
    10     1     2    2
    11     5     3    1
    12    14     2    1
    13     2     6    1
    14     3    15    1
    15     3     7    2
    16     6     7    1
    17     6     9    2
    18     7    10    1
    19    18    10    1
