@<TRIPOS>MOLECULE
CGQCWMIAEPEHNQ-MRVPVSSYSA-M	6044391	-724.4728894168053
 23 23 0 0 0
SMALL
MULLIKEN NwChem

@<TRIPOS>ATOM
      1 C          -0.1343    1.2991   -3.5707 C.3     1  LIG1       -0.21999999999999975
      2 C           0.8870    1.0929    1.3157 C.2     1  LIG1      -0.20000000000000018
      3 C           1.5625    1.8465    0.3703 C.2     1  LIG1      -0.2699999999999996
      4 C          -0.1852   -0.1553   -0.4446 C.2     1  LIG1      -0.2599999999999998
      5 C          -0.0042    0.0712    0.9416 C.3     1  LIG1       0.04999999999999982
      6 C           1.4268    1.6471   -1.0549 C.2     1  LIG1       0.3600000000000003
      7 C           0.4843    0.5867   -1.3984 C.2     1  LIG1       0.2400000000000002
      8 C          -0.7955   -0.6879    1.9705 C.3     1  LIG1       -0.009999999999999787
      9 C          -0.5712   -2.1894    1.8233 C.2     1  LIG1       0.5800000000000001
     10 O           2.0625    2.3228   -1.9156 O.2     1  LIG1      -0.7400000000000002
     11 O          -2.2081   -0.3973    1.9501 O.3     1  LIG1      -0.6699999999999999
     12 O           0.2456   -2.8426    2.4436 O.2     1  LIG1      -0.5299999999999994
     13 O          -1.3684   -2.7640    0.8784 O.3     1  LIG1      -0.5800000000000001
     14 O           0.2789    0.2295   -2.7294 O.2     1  LIG1      -0.5600000000000005
     15 H          -0.2089    0.8865   -4.5846 H       1  LIG1       0.15000000000000002
     16 H           0.5918    2.1165   -3.5405 H       1  LIG1       0.16000000000000003
     17 H          -1.1280    1.6768   -3.2718 H       1  LIG1          0.13
     18 H           1.0416    1.2945    2.3770 H       1  LIG1          0.13
     19 H           2.2534    2.6305    0.6756 H       1  LIG1       0.08999999999999997
     20 H          -0.8503   -0.9432   -0.7922 H       1  LIG1          0.13
     21 H          -0.4204   -0.4423    2.9704 H       1  LIG1       0.17000000000000004
     22 H          -2.3514    0.0381    1.0950 H       1  LIG1       0.42000000000000004
     23 H          -1.0570   -3.6861    0.8199 H       1  LIG1       0.43999999999999995
@<TRIPOS>BOND
     1    15     1    1
     2     1    16    1
     3     1    17    1
     4     1    14    1
     5    14     7    1
     6    10     6    2
     7     7     6    1
     8     7     4    2
     9     6     3    1
    10    20     4    1
    11     4     5    1
    12     3    19    1
    13     3     2    2
    14    23    13    1
    15    13     9    1
    16     5     2    1
    17     5     8    1
    18    22    11    1
    19     2    18    1
    20     9     8    1
    21     9    12    2
    22    11     8    1
    23     8    21    1
