@<TRIPOS>MOLECULE
CGSJXLIKVBJVRY-XTGBIJOFSA-N	6044392	-1130.0405652765974
 72 75 0 0 0
SMALL
MULLIKEN NwChem

@<TRIPOS>ATOM
      1 C          -5.9005   -1.4423   -1.6503 C.3     1  LIG1      -0.5300000000000002
      2 C          -4.4006   -3.4514   -2.0311 C.3     1  LIG1      -0.5199999999999996
      3 C          -1.4431    1.3719   -5.0422 C.3     1  LIG1      -0.4800000000000004
      4 C           4.0833    0.2242    1.6499 C.3     1  LIG1      -0.4800000000000004
      5 C          -1.1472   -0.6775   -1.0308 C.3     1  LIG1      -0.4900000000000002
      6 C          -4.1410    0.0587   -3.7761 C.3     1  LIG1      -0.3200000000000003
      7 C          -3.9822   -1.3612   -3.3012 C.2     1  LIG1      -0.17999999999999972
      8 C          -3.1004    1.0307   -3.1693 C.3     1  LIG1      -0.2699999999999996
      9 C           1.8614    1.8249    3.1521 C.3     1  LIG1      -0.28000000000000025
     10 C           0.7948    2.0469    2.0757 C.3     1  LIG1      -0.33999999999999986
     11 C          -0.7510    2.7431   -2.1516 C.3     1  LIG1      -0.29000000000000004
     12 C           0.1895    2.8262   -0.9458 C.3     1  LIG1      -0.29000000000000004
     13 C           3.5557   -2.2333    3.4699 C.3     1  LIG1      -0.29000000000000004
     14 C           1.8173   -0.8301   -0.3875 C.3     1  LIG1      -0.3600000000000003
     15 C           2.7294   -1.8362    2.2331 C.3     1  LIG1      -0.2999999999999998
     16 C           1.2408   -0.1656   -1.6356 C.3     1  LIG1      -0.29000000000000004
     17 C           2.9624   -0.0187    4.5523 C.3     1  LIG1      -0.28000000000000025
     18 C          -4.7160   -2.0183   -2.3892 C.2     1  LIG1      0.16999999999999993
     19 C          -1.6463    0.7766   -3.6355 C.3     1  LIG1      -0.07000000000000028
     20 C           2.1160    0.3286    3.3199 C.3     1  LIG1      -0.1200000000000001
     21 C           3.0754   -1.5392    4.7537 C.3     1  LIG1       0.1200000000000001
     22 C           0.9078    1.1216    0.8756 C.2     1  LIG1      0.08999999999999986
     23 C          -0.5472    1.3050   -2.6790 C.3     1  LIG1      -0.11000000000000032
     24 C          -0.0560    1.4710   -0.2432 C.3     1  LIG1      -0.16999999999999993
     25 C           1.7327    0.0564    0.8408 C.2     1  LIG1      0.08000000000000007
     26 C           2.6667   -0.2989    2.0079 C.3     1  LIG1      0.04999999999999982
     27 C          -0.1602    0.4395   -1.4064 C.3     1  LIG1      0.11000000000000032
     28 O           1.8386   -2.0955    5.2170 O.3     1  LIG1      -0.6899999999999995
     29 H          -6.7991   -2.0540   -1.8221 H       1  LIG1       0.16000000000000003
     30 H          -6.1337   -0.4137   -1.9365 H       1  LIG1       0.16000000000000003
     31 H          -5.7202   -1.4555   -0.5653 H       1  LIG1       0.16000000000000003
     32 H          -3.5070   -3.8168   -2.5472 H       1  LIG1       0.16000000000000003
     33 H          -4.2403   -3.5667   -0.9494 H       1  LIG1       0.15000000000000002
     34 H          -5.2375   -4.1155   -2.2938 H       1  LIG1       0.16000000000000003
     35 H          -1.4962    2.4676   -5.0127 H       1  LIG1       0.15000000000000002
     36 H          -0.4663    1.0955   -5.4556 H       1  LIG1          0.14
     37 H          -2.2103    1.0253   -5.7424 H       1  LIG1       0.15000000000000002
     38 H           4.4738   -0.3040    0.7713 H       1  LIG1       0.15000000000000002
     39 H           4.0624    1.2909    1.4081 H       1  LIG1       0.15000000000000002
     40 H           4.8050    0.0776    2.4591 H       1  LIG1       0.16000000000000003
     41 H          -2.1609   -0.2996   -0.8880 H       1  LIG1       0.15000000000000002
     42 H          -1.1931   -1.4624   -1.7934 H       1  LIG1          0.14
     43 H          -0.8433   -1.1440   -0.0878 H       1  LIG1          0.14
     44 H          -4.0536    0.0792   -4.8707 H       1  LIG1          0.14
     45 H          -5.1445    0.4345   -3.5494 H       1  LIG1          0.14
     46 H          -3.1509   -1.9077   -3.7475 H       1  LIG1          0.13
     47 H          -3.3837    2.0579   -3.4391 H       1  LIG1          0.13
     48 H          -3.1776    0.9716   -2.0783 H       1  LIG1          0.14
     49 H           1.5346    2.2627    4.1044 H       1  LIG1          0.13
     50 H           2.7933    2.3363    2.8800 H       1  LIG1          0.14
     51 H          -0.2044    1.9070    2.5170 H       1  LIG1          0.14
     52 H           0.8135    3.0913    1.7376 H       1  LIG1       0.15000000000000002
     53 H          -1.7830    2.8923   -1.8095 H       1  LIG1          0.14
     54 H          -0.5494    3.5038   -2.9140 H       1  LIG1          0.13
     55 H           1.2364    2.8946   -1.2727 H       1  LIG1          0.13
     56 H          -0.0105    3.6898   -0.3035 H       1  LIG1          0.14
     57 H           3.5053   -3.3167    3.6220 H       1  LIG1          0.14
     58 H           4.6125   -1.9842    3.3038 H       1  LIG1       0.15000000000000002
     59 H           2.8659   -1.0964   -0.5812 H       1  LIG1       0.15000000000000002
     60 H           1.3105   -1.7852   -0.1917 H       1  LIG1       0.15000000000000002
     61 H           3.1469   -2.3388    1.3538 H       1  LIG1          0.14
     62 H           1.7026   -2.2166    2.3359 H       1  LIG1          0.14
     63 H           1.2047   -0.8802   -2.4694 H       1  LIG1          0.13
     64 H           1.9245    0.6364   -1.9408 H       1  LIG1          0.13
     65 H           2.4990    0.4130    5.4470 H       1  LIG1          0.13
     66 H           3.9638    0.4220    4.4682 H       1  LIG1          0.14
     67 H          -1.4972   -0.3077   -3.7208 H       1  LIG1          0.13
     68 H           1.1242   -0.1277    3.4752 H       1  LIG1          0.12
     69 H           3.7784   -1.7495    5.5669 H       1  LIG1          0.13
     70 H           0.3657    1.3372   -3.2894 H       1  LIG1          0.12
     71 H          -1.0551    1.5483    0.2192 H       1  LIG1          0.12
     72 H           1.1748   -1.9707    4.5212 H       1  LIG1       0.42000000000000004
@<TRIPOS>BOND
     1    37     3    1
     2    36     3    1
     3     3    35    1
     4     3    19    1
     5    44     6    1
     6     6    45    1
     7     6     7    1
     8     6     8    1
     9    46     7    1
    10    67    19    1
    11    19     8    1
    12    19    23    1
    13    47     8    1
    14     7    18    2
    15    70    23    1
    16     8    48    1
    17    54    11    1
    18    23    11    1
    19    23    27    1
    20    32     2    1
    21    63    16    1
    22    18     2    1
    23    18     1    1
    24    34     2    1
    25    11    53    1
    26    11    12    1
    27     2    33    1
    28    64    16    1
    29    30     1    1
    30    29     1    1
    31    42     5    1
    32     1    31    1
    33    16    27    1
    34    16    14    1
    35    27     5    1
    36    27    24    1
    37    55    12    1
    38     5    41    1
    39     5    43    1
    40    12    56    1
    41    12    24    1
    42    59    14    1
    43    14    60    1
    44    14    25    1
    45    24    71    1
    46    24    22    1
    47    38     4    1
    48    25    22    2
    49    25    26    1
    50    22    10    1
    51    61    15    1
    52    39     4    1
    53     4    26    1
    54     4    40    1
    55    52    10    1
    56    26    15    1
    57    26    20    1
    58    10    51    1
    59    10     9    1
    60    15    62    1
    61    15    13    1
    62    50     9    1
    63     9    20    1
    64     9    49    1
    65    58    13    1
    66    20    68    1
    67    20    17    1
    68    13    57    1
    69    13    21    1
    70    66    17    1
    71    72    28    1
    72    17    21    1
    73    17    65    1
    74    21    28    1
    75    21    69    1
