@<TRIPOS>MOLECULE
CGWDNAFNQOBSCK-UHFFFAOYSA-N	6044393	-658.1523461161189
 22 22 0 0 0
SMALL
MULLIKEN NwChem

@<TRIPOS>ATOM
      1 C          -0.3785   -2.4692    1.1096 C.3     1  LIG1       -0.33000000000000007
      2 C          -0.7789   -2.2812   -1.2978 C.2     1  LIG1       0.34999999999999964
      3 C           0.0136   -0.3272   -0.0660 C.2     1  LIG1       0.08000000000000007
      4 C           1.2643    0.0783    0.3432 C.2     1  LIG1       0.5800000000000001
      5 C          -0.9602    0.7299   -0.2709 C.3     1  LIG1       0.5300000000000002
      6 C           0.3734    2.3436    0.7289 C.cat   1  LIG1       0.6299999999999999
      7 N           2.3704   -0.7407    0.4026 N.pl3   1  LIG1      -0.7999999999999998
      8 N           0.5057    3.5051    1.2543 N.pl3   1  LIG1        -0.75
      9 N           1.4466    1.3828    0.6904 N.pl3   1  LIG1        -0.71
     10 N          -0.7940    1.9582    0.1100 N.2     1  LIG1      -0.5899999999999999
     11 N          -0.2781   -1.7285   -0.1555 N.am    1  LIG1      -0.45999999999999996
     12 O          -1.0296   -1.6622   -2.3266 O.2     1  LIG1      -0.5399999999999991
     13 O          -2.1194    0.4282   -0.8825 O.3     1  LIG1      -0.6500000000000004
     14 H          -0.5342   -3.5326    0.9054 H       1  LIG1       0.18999999999999995
     15 H          -1.2152   -2.0923    1.7076 H       1  LIG1       0.18999999999999995
     16 H           0.5426   -2.3571    1.6887 H       1  LIG1       0.18000000000000005
     17 H          -0.9539   -3.3682   -1.2100 H       1  LIG1       0.17000000000000004
     18 H           2.9901   -0.6329    1.1959 H       1  LIG1          0.39
     19 H           2.2136   -1.7008    0.1281 H       1  LIG1          0.39
     20 H           1.4325    3.6187    1.6723 H       1  LIG1       0.31000000000000005
     21 H           2.3929    1.7225    0.8075 H       1  LIG1          0.39
     22 H          -1.9397   -0.2812   -1.5398 H       1  LIG1       0.44999999999999996
@<TRIPOS>BOND
     1    12     2    2
     2    22    13    1
     3     2    17    1
     4     2    11   am
     5    13     5    1
     6     5     3    1
     7     5    10    1
     8    11     3    1
     9    11     1    1
    10     3     4    2
    11    10     6    2
    12    19     7    1
    13     4     7    1
    14     4     9    1
    15     7    18    1
    16     9     6    1
    17     9    21    1
    18     6     8    1
    19    14     1    1
    20     1    16    1
    21     1    15    1
    22     8    20    1
