@<TRIPOS>MOLECULE
CHGIKSSZNBCNDW-QGBOJXOESA-N	6044395	-1208.6161500755443
 78 81 0 0 0
SMALL
MULLIKEN NwChem

@<TRIPOS>ATOM
      1 C           5.2546   -3.1921    5.1236 C.3     1  LIG1      -0.5300000000000002
      2 C           6.3724   -1.0333    4.3977 C.3     1  LIG1      -0.5199999999999996
      3 C           3.8028   -2.5432   -0.4459 C.3     1  LIG1      -0.4800000000000004
      4 C          -4.6206    4.0903   -0.4552 C.3     1  LIG1      -0.46999999999999975
      5 C          -5.4584    2.5568   -2.2163 C.3     1  LIG1      -0.4800000000000004
      6 C           1.9295    0.2359    0.0699 C.3     1  LIG1      -0.4900000000000002
      7 C          -3.2625    0.1898   -2.8598 C.3     1  LIG1      -0.4800000000000004
      8 C           4.8546   -3.8404    2.1029 C.3     1  LIG1      -0.3200000000000003
      9 C           5.5263   -2.6199    2.6809 C.2     1  LIG1      -0.1900000000000004
     10 C           3.3539   -3.6220    1.7998 C.3     1  LIG1      -0.2599999999999998
     11 C          -2.5885    0.5259    0.8329 C.3     1  LIG1      -0.33999999999999986
     12 C           0.6219   -2.4992    1.8792 C.3     1  LIG1      -0.29000000000000004
     13 C          -0.7340   -1.9349    1.4515 C.3     1  LIG1      -0.28000000000000025
     14 C          -3.7391    1.1835    0.0641 C.3     1  LIG1      -0.29000000000000004
     15 C          -0.1363   -0.0737   -2.1571 C.3     1  LIG1      -0.3600000000000003
     16 C          -2.7201    3.1736   -3.7247 C.3     1  LIG1      -0.29000000000000004
     17 C           0.5991   -1.2412   -1.5036 C.3     1  LIG1      -0.2999999999999998
     18 C          -1.7281    2.1835   -3.0989 C.3     1  LIG1      -0.3099999999999996
     19 C           5.6984   -2.3173    3.9764 C.2     1  LIG1      0.17999999999999972
     20 C           3.0336   -2.4228    0.8813 C.3     1  LIG1      -0.07000000000000028
     21 C          -1.4178    0.0942   -0.0277 C.2     1  LIG1      0.09999999999999964
     22 C           1.5119   -2.3044    0.6326 C.3     1  LIG1      -0.09999999999999964
     23 C          -0.3303   -0.6216    0.7518 C.3     1  LIG1      -0.17999999999999972
     24 C          -1.3184    0.4038   -1.3350 C.2     1  LIG1      0.07000000000000028
     25 C          -3.1765    2.0851   -1.0410 C.3     1  LIG1      -0.1299999999999999
     26 C          -3.4376    4.0185   -2.6647 C.3     1  LIG1       0.1299999999999999
     27 C          -4.1750    3.1516   -1.6000 C.3     1  LIG1      0.08000000000000007
     28 C           0.9758   -0.9676   -0.0358 C.3     1  LIG1      0.1200000000000001
     29 C          -2.3947    1.2157   -2.0842 C.3     1  LIG1      0.04999999999999982
     30 O          -2.5223    4.9486   -2.0710 O.3     1  LIG1      -0.6899999999999995
     31 H           6.1102   -3.4693    5.7554 H       1  LIG1       0.16000000000000003
     32 H           4.7609   -4.1118    4.8009 H       1  LIG1       0.16000000000000003
     33 H           4.5547   -2.6477    5.7727 H       1  LIG1       0.16000000000000003
     34 H           6.6750   -0.4253    3.5389 H       1  LIG1       0.16000000000000003
     35 H           5.7062   -0.4264    5.0272 H       1  LIG1       0.16000000000000003
     36 H           7.2676   -1.2378    5.0023 H       1  LIG1       0.16000000000000003
     37 H           3.5798   -3.5031   -0.9303 H       1  LIG1          0.14
     38 H           3.5365   -1.7518   -1.1504 H       1  LIG1       0.16000000000000003
     39 H           4.8861   -2.4910   -0.2948 H       1  LIG1       0.15000000000000002
     40 H          -5.1378    4.9639   -0.8683 H       1  LIG1          0.14
     41 H          -5.3135    3.5892    0.2282 H       1  LIG1       0.15000000000000002
     42 H          -3.7696    4.4617    0.1220 H       1  LIG1          0.14
     43 H          -6.1752    3.3603   -2.4244 H       1  LIG1          0.14
     44 H          -5.2885    2.0236   -3.1527 H       1  LIG1       0.16000000000000003
     45 H          -5.9400    1.8604   -1.5215 H       1  LIG1       0.15000000000000002
     46 H           2.2691    0.3803    1.1015 H       1  LIG1       0.15000000000000002
     47 H           2.8153    0.1363   -0.5651 H       1  LIG1       0.15000000000000002
     48 H           1.4082    1.1530   -0.2264 H       1  LIG1       0.15000000000000002
     49 H          -3.8677   -0.4205   -2.1849 H       1  LIG1       0.15000000000000002
     50 H          -3.9316    0.6565   -3.5848 H       1  LIG1       0.15000000000000002
     51 H          -2.6158   -0.4944   -3.4196 H       1  LIG1       0.15000000000000002
     52 H           5.3777   -4.1361    1.1848 H       1  LIG1          0.14
     53 H           4.9432   -4.6945    2.7841 H       1  LIG1          0.14
     54 H           5.8755   -1.8917    1.9476 H       1  LIG1          0.13
     55 H           2.9441   -4.5389    1.3493 H       1  LIG1          0.12
     56 H           2.8425   -3.4865    2.7595 H       1  LIG1          0.14
     57 H          -2.9659   -0.3350    1.4003 H       1  LIG1       0.15000000000000002
     58 H          -2.2102    1.2284    1.5939 H       1  LIG1          0.14
     59 H           0.5705   -3.5433    2.2033 H       1  LIG1          0.14
     60 H           1.0142   -1.9142    2.7242 H       1  LIG1          0.13
     61 H          -1.4207   -1.7840    2.2906 H       1  LIG1          0.14
     62 H          -1.2247   -2.6109    0.7377 H       1  LIG1          0.13
     63 H          -4.3588    1.7516    0.7641 H       1  LIG1          0.14
     64 H          -4.3914    0.4161   -0.3673 H       1  LIG1          0.14
     65 H           0.5572    0.7594   -2.3409 H       1  LIG1       0.15000000000000002
     66 H          -0.4746   -0.3870   -3.1532 H       1  LIG1       0.15000000000000002
     67 H          -2.1891    3.8537   -4.4004 H       1  LIG1          0.14
     68 H          -3.4561    2.6367   -4.3337 H       1  LIG1       0.15000000000000002
     69 H           1.4941   -1.4985   -2.0836 H       1  LIG1          0.13
     70 H          -0.0584   -2.1207   -1.5348 H       1  LIG1          0.13
     71 H          -1.2291    1.6232   -3.8965 H       1  LIG1          0.14
     72 H          -0.9321    2.7439   -2.5860 H       1  LIG1          0.14
     73 H           3.3756   -1.5196    1.4030 H       1  LIG1          0.12
     74 H           1.2542   -3.1236   -0.0564 H       1  LIG1          0.12
     75 H          -0.0434    0.0662    1.5661 H       1  LIG1          0.13
     76 H          -2.3866    2.6818   -0.5521 H       1  LIG1          0.12
     77 H          -4.1799    4.6619   -3.1528 H       1  LIG1          0.13
     78 H          -1.8359    4.4407   -1.6120 H       1  LIG1       0.42000000000000004
@<TRIPOS>BOND
     1    67    16    1
     2    68    16    1
     3    71    18    1
     4    16    18    1
     5    16    26    1
     6    50     7    1
     7    51     7    1
     8    66    15    1
     9    77    26    1
    10    44     5    1
    11    18    72    1
    12    18    29    1
    13     7    49    1
    14     7    29    1
    15    26    30    1
    16    26    27    1
    17    43     5    1
    18    65    15    1
    19     5    27    1
    20     5    45    1
    21    15    17    1
    22    15    24    1
    23    29    24    1
    24    29    25    1
    25    69    17    1
    26    30    78    1
    27    27    25    1
    28    27     4    1
    29    70    17    1
    30    17    28    1
    31    24    21    2
    32    38     3    1
    33    25    76    1
    34    25    14    1
    35    37     3    1
    36    40     4    1
    37    47     6    1
    38     4    42    1
    39     4    41    1
    40     3    39    1
    41     3    20    1
    42    64    14    1
    43    48     6    1
    44    74    22    1
    45    28     6    1
    46    28    22    1
    47    28    23    1
    48    21    23    1
    49    21    11    1
    50    14    63    1
    51    14    11    1
    52     6    46    1
    53    22    20    1
    54    22    12    1
    55    62    13    1
    56    23    13    1
    57    23    75    1
    58    11    57    1
    59    11    58    1
    60    20    73    1
    61    20    10    1
    62    52     8    1
    63    55    10    1
    64    13    12    1
    65    13    61    1
    66    10     8    1
    67    10    56    1
    68    12    59    1
    69    12    60    1
    70    54     9    1
    71     8     9    1
    72     8    53    1
    73     9    19    2
    74    34     2    1
    75    19     2    1
    76    19     1    1
    77     2    36    1
    78     2    35    1
    79    32     1    1
    80     1    31    1
    81     1    33    1
