@<TRIPOS>MOLECULE
CIKGWCTVFSRMJU-KVQBGUIXSA-K	11152637	-2097.4040289439295
 39 41 0 0 0
SMALL
MULLIKEN NwChem

@<TRIPOS>ATOM
      1 C          -1.5890   -1.6577    0.0679 C.3     1  LIG1       -0.2999999999999998
      2 C           1.0296    0.8339    0.0535 C.3     1  LIG1       -0.08000000000000007
      3 C          -4.2923   -0.7470    2.2614 C.ar    1  LIG1       0.17999999999999972
      4 C          -0.0568   -1.5759    0.1438 C.3     1  LIG1       0.08000000000000007
      5 C           0.1797   -0.1820    0.8281 C.3     1  LIG1       0.1200000000000001
      6 C          -1.9945   -0.7434    1.2268 C.3     1  LIG1       0.2599999999999998
      7 C          -5.4285    0.3903    0.8437 C.ar    1  LIG1       0.08000000000000007
      8 C          -4.1219    0.3996    0.3963 C.ar    1  LIG1       0.5800000000000001
      9 C          -6.4623    1.0992    0.0513 C.ar    1  LIG1       0.4900000000000002
     10 C          -4.7035    1.7988   -1.4467 C.ar    1  LIG1       0.5700000000000003
     11 N          -4.2083    2.4985   -2.4339 N.pl3   1  LIG1      -0.8099999999999996
     12 N          -5.5139   -0.3415    2.0241 N.ar    1  LIG1      -0.5800000000000001
     13 N          -3.7231    1.0081   -0.7550 N.ar    1  LIG1      -0.7300000000000004
     14 N          -6.0092    1.7584   -1.0632 N.ar    1  LIG1      -0.6699999999999999
     15 N          -3.3773   -0.3319    1.2935 N.ar    1  LIG1      -0.5099999999999998
     16 O           0.4205   -2.6375    0.9439 O.3     1  LIG1      -0.7300000000000004
     17 O          -7.6626    1.0894    0.3886 O.2     1  LIG1      -0.6699999999999999
     18 O           6.8849    1.1122   -0.6805 O.3     1  LIG1      -0.6799999999999997
     19 O           5.1213    0.4358   -2.4153 O.3     1  LIG1        -0.75
     20 O           6.5247   -1.4283   -1.2611 O.2     1  LIG1      -0.6899999999999995
     21 O           2.8812   -0.9012   -1.5786 O.2     1  LIG1      -0.7300000000000004
     22 O           2.9160   -1.7281    0.9072 O.3     1  LIG1      -0.6999999999999993
     23 O           2.4065    0.7391    0.3627 O.3     1  LIG1      -0.5800000000000001
     24 O          -1.1417    0.3810    1.0717 O.3     1  LIG1      -0.5500000000000007
     25 O           4.7260   -0.0937    0.0718 O.3     1  LIG1      -0.6600000000000001
     26 P           6.0002   -0.0274   -1.0998 P.3     1  LIG1       1.0500000000000007
     27 P           3.2326   -0.6528   -0.1211 P.3     1  LIG1          1.17
     28 H          -1.9436   -2.6856    0.1815 H       1  LIG1       0.17000000000000004
     29 H          -1.9792   -1.2361   -0.8647 H       1  LIG1       0.17000000000000004
     30 H           0.7045    1.8395    0.3514 H       1  LIG1       0.17000000000000004
     31 H           0.8615    0.7241   -1.0282 H       1  LIG1       0.16000000000000003
     32 H          -3.9596   -1.3407    3.1044 H       1  LIG1       0.19999999999999996
     33 H           0.4152   -1.5876   -0.8478 H       1  LIG1          0.14
     34 H           0.6636   -0.3680    1.7952 H       1  LIG1       0.15000000000000002
     35 H          -1.7804   -1.2553    2.1794 H       1  LIG1       0.18000000000000005
     36 H          -5.0075    3.0013   -2.8303 H       1  LIG1          0.27
     37 H          -2.7502    1.2441   -0.9010 H       1  LIG1          0.36
     38 H           1.4081   -2.4616    0.9853 H       1  LIG1       0.43999999999999995
     39 H           4.2753   -0.0810   -2.3875 H       1  LIG1       0.44999999999999996
@<TRIPOS>BOND
     1    36    11    1
     2    11    10    1
     3    19    39    1
     4    19    26    1
     5    21    27    2
     6    10    14   ar
     7    10    13   ar
     8    20    26    2
     9    26    18    1
    10    26    25    1
    11    14     9   ar
    12    31     2    1
    13    37    13    1
    14    29     1    1
    15    33     4    1
    16    13     8   ar
    17    27    25    1
    18    27    23    1
    19    27    22    1
    20     9    17    2
    21     9     7   ar
    22     2    30    1
    23     2    23    1
    24     2     5    1
    25     1     4    1
    26     1    28    1
    27     1     6    1
    28     4     5    1
    29     4    16    1
    30     8     7   ar
    31     8    15   ar
    32     5    24    1
    33     5    34    1
    34     7    12   ar
    35    16    38    1
    36    24     6    1
    37     6    15    1
    38     6    35    1
    39    15     3   ar
    40    12     3   ar
    41     3    32    1
