@<TRIPOS>MOLECULE
CILXJJLQPTUUSS-XQRVVYSFSA-M	6044398	-857.9140277398507
 19 18 0 0 0
SMALL
MULLIKEN NwChem

@<TRIPOS>ATOM
      1 C          -0.0480    1.5065    1.9854 C.3     1  LIG1      -0.5999999999999996
      2 C          -1.0595   -1.1932    0.1971 C.3     1  LIG1       -0.3200000000000003
      3 C          -0.1576   -1.2959    1.4387 C.3     1  LIG1       -0.41999999999999993
      4 C           1.0558    0.9162   -2.2323 C.2     1  LIG1       0.1200000000000001
      5 C          -0.7230   -0.0073   -0.7289 C.2     1  LIG1       0.3600000000000003
      6 C           0.5185   -0.0813   -1.4034 C.3     1  LIG1       0.17999999999999972
      7 O           2.1809    0.7942   -2.7955 O.2     1  LIG1      -0.6300000000000008
      8 O          -1.5363    0.9486   -0.8177 O.2     1  LIG1      -0.6699999999999999
      9 O           1.3345   -1.2219   -1.2528 O.3     1  LIG1      -0.7300000000000004
     10 S          -0.4703   -0.0843    2.7948 S.3     1  LIG1      -0.019999999999999574
     11 H          -0.0363    2.2689    2.7713 H       1  LIG1       0.18999999999999995
     12 H          -0.7846    1.7529    1.2186 H       1  LIG1       0.18999999999999995
     13 H           0.9405    1.4452    1.5204 H       1  LIG1       0.18000000000000005
     14 H          -0.9261   -2.1287   -0.3654 H       1  LIG1       0.16000000000000003
     15 H          -2.1104   -1.1012    0.4904 H       1  LIG1          0.14
     16 H           0.8906   -1.2323    1.1336 H       1  LIG1       0.18999999999999995
     17 H          -0.3001   -2.2640    1.9364 H       1  LIG1       0.18999999999999995
     18 H           0.4424    1.8261   -2.3654 H       1  LIG1       0.08999999999999997
     19 H           2.0998   -0.9619   -1.8126 H       1  LIG1            0.4
@<TRIPOS>BOND
     1     7     4    2
     2    18     4    1
     3     4     6    1
     4    19     9    1
     5     6     9    1
     6     6     5    1
     7     8     5    2
     8     5     2    1
     9    14     2    1
    10     2    15    1
    11     2     3    1
    12    16     3    1
    13    12     1    1
    14     3    17    1
    15     3    10    1
    16    13     1    1
    17     1    11    1
    18     1    10    1
