@<TRIPOS>MOLECULE
CIPFCGZLFXVXBG-CNWJWELYSA-F	11152636	-2954.0798849386842
 36 36 0 0 0
SMALL
MULLIKEN NwChem

@<TRIPOS>ATOM
      1 C          -0.5603    1.3114   -0.8345 C.3     1  LIG1       0.11000000000000032
      2 C           1.5380    0.3717    0.1813 C.3     1  LIG1       0.07000000000000028
      3 C           0.5647    1.6100    0.2163 C.3     1  LIG1       0.13999999999999968
      4 C          -1.3823   -0.0191   -0.5984 C.3     1  LIG1       0.11000000000000032
      5 C           0.8774   -1.0087    0.5935 C.3     1  LIG1       0.1299999999999999
      6 C          -0.5813   -1.2930   -0.0189 C.3     1  LIG1       0.1299999999999999
      7 O          -1.4806    2.4002   -0.9311 O.3     1  LIG1        -0.75
      8 O           2.1358    0.2768   -1.1110 O.3     1  LIG1      -0.7400000000000002
      9 O           3.1510    4.1268    1.3207 O.3     1  LIG1      -0.8100000000000005
     10 O           0.6814    4.3895    2.0623 O.3     1  LIG1      -0.8000000000000007
     11 O           1.5179    5.4434   -0.1667 O.2     1  LIG1      -0.8100000000000005
     12 O          -2.9433    1.7237   -3.1364 O.3     1  LIG1      -0.8000000000000007
     13 O          -2.9856   -0.6118   -4.2552 O.2     1  LIG1      -0.8000000000000007
     14 O          -4.6372   -0.0608   -2.3457 O.3     1  LIG1      -0.7899999999999991
     15 O           3.4332   -4.0236   -0.2644 O.3     1  LIG1      -0.8000000000000007
     16 O           4.1424   -1.5744   -0.6755 O.2     1  LIG1      -0.8000000000000007
     17 O           3.9197   -2.4718    1.7510 O.3     1  LIG1      -0.7899999999999991
     18 O          -3.3605   -1.5247    2.5104 O.3     1  LIG1      -0.8000000000000007
     19 O          -1.0669   -2.2560    3.4597 O.3     1  LIG1      -0.8000000000000007
     20 O          -2.5687   -3.9664    2.2160 O.2     1  LIG1      -0.8100000000000005
     21 O           1.2635    2.8469   -0.0765 O.3     1  LIG1      -0.6699999999999999
     22 O          -1.9990   -0.4288   -1.8844 O.3     1  LIG1      -0.6699999999999999
     23 O           1.7303   -2.1431    0.1978 O.3     1  LIG1      -0.6699999999999999
     24 O          -1.4055   -2.1806    0.7722 O.3     1  LIG1      -0.6799999999999997
     25 P           1.6674    4.2866    0.8710 P.3     1  LIG1       0.8599999999999994
     26 P          -3.2297    0.1939   -2.9456 P.3     1  LIG1       0.9000000000000004
     27 P           3.4107   -2.5693    0.2903 P.3     1  LIG1       0.9100000000000001
     28 P          -2.1407   -2.4713    2.3656 P.3     1  LIG1       0.8800000000000008
     29 H          -0.0401    1.1778   -1.7946 H       1  LIG1       0.10999999999999999
     30 H           2.3303    0.5737    0.9248 H       1  LIG1       0.10999999999999999
     31 H           0.1150    1.6730    1.2203 H       1  LIG1          0.12
     32 H          -2.1743    0.2059    0.1264 H       1  LIG1          0.12
     33 H           0.7562   -1.0282    1.6845 H       1  LIG1          0.12
     34 H          -0.3574   -1.8710   -0.9249 H       1  LIG1          0.12
     35 H          -2.0376    2.1804   -1.7317 H       1  LIG1       0.42000000000000004
     36 H           2.8262   -0.4360   -1.0135 H       1  LIG1       0.43000000000000005
@<TRIPOS>BOND
     1    13    26    2
     2    12    26    1
     3    26    14    1
     4    26    22    1
     5    22     4    1
     6    29     1    1
     7    35     7    1
     8     8    36    1
     9     8     2    1
    10     7     1    1
    11    34     6    1
    12     1     4    1
    13     1     3    1
    14    16    27    2
    15     4     6    1
    16     4    32    1
    17    15    27    1
    18    11    25    2
    19    21     3    1
    20    21    25    1
    21     6     5    1
    22     6    24    1
    23     2     3    1
    24     2     5    1
    25     2    30    1
    26    23    27    1
    27    23     5    1
    28     3    31    1
    29    27    17    1
    30     5    33    1
    31    24    28    1
    32    25     9    1
    33    25    10    1
    34    20    28    2
    35    28    18    1
    36    28    19    1
