@<TRIPOS>MOLECULE
CIZCKPNGZPENDV-UMUUVTGISA-I	11152635	-4477.890821736421
 101 104 0 0 0
SMALL
MULLIKEN NwChem

@<TRIPOS>ATOM
      1 C           0.4852   -1.3924   -0.4742 C.3     1  LIG1      -0.4900000000000002
      2 C           0.1596    0.2453   -2.3769 C.3     1  LIG1      -0.4800000000000004
      3 C         -13.9692    0.8525   -1.8982 C.ar    1  LIG1      -0.15000000000000036
      4 C         -13.3418    1.3301   -0.7438 C.ar    1  LIG1      -0.16000000000000014
      5 C         -14.7045   -0.3333   -1.8278 C.ar    1  LIG1      -0.16000000000000014
      6 C         -13.4377    0.6353    0.4598 C.ar    1  LIG1      -0.20999999999999996
      7 C         -14.7975   -1.0297   -0.6243 C.ar    1  LIG1      -0.20999999999999996
      8 C          -5.6212    0.2099    0.9231 C.3     1  LIG1       -0.3600000000000003
      9 C          -4.2130    0.5537    0.3998 C.3     1  LIG1       -0.15000000000000036
     10 C          -8.2622   -0.0289    1.9776 C.3     1  LIG1       -0.11000000000000032
     11 C          -9.6413    0.1930    2.6355 C.3     1  LIG1       -0.41000000000000014
     12 C         -14.3166   -1.3713    1.7719 C.2     1  LIG1      -0.2400000000000002
     13 C         -13.9041   -2.1967    4.1310 C.3     1  LIG1       -0.4400000000000004
     14 C           7.2394    1.2122   -2.2174 C.3     1  LIG1       -0.08999999999999986
     15 C           0.9750    1.0424   -0.1366 C.3     1  LIG1       -0.04999999999999982
     16 C           7.3178   -1.4920    1.1617 C.ar    1  LIG1       0.13999999999999968
     17 C          11.2902    0.2521    1.4032 C.ar    1  LIG1       0.21999999999999975
     18 C         -14.1535   -0.5781    0.5470 C.ar    1  LIG1      0.15000000000000036
     19 C         -13.5694   -1.3768    2.8952 C.2     1  LIG1       0.05999999999999961
     20 C           8.6661    1.6814   -2.1037 C.3     1  LIG1       0.1299999999999999
     21 C          -6.2358    1.2643    1.8931 C.2     1  LIG1       0.4800000000000004
     22 C         -15.3325   -2.8591    4.3279 C.2     1  LIG1       0.5300000000000002
     23 C           9.8236   -1.1435    1.9949 C.ar    1  LIG1       0.1900000000000004
     24 C          10.9666    1.1933   -1.7123 C.3     1  LIG1       0.1299999999999999
     25 C           9.7121    0.6194   -2.4813 C.3     1  LIG1       0.1200000000000001
     26 C          -1.3906    0.3118   -0.3569 C.3     1  LIG1       0.05999999999999961
     27 C           9.0440   -2.1883    2.5095 C.ar    1  LIG1       0.4299999999999997
     28 C           9.2129   -0.3240    1.0204 C.ar    1  LIG1          0.54
     29 C          -2.5426   -0.6018   -0.9711 C.2     1  LIG1       0.4500000000000002
     30 C          10.2367    1.6472   -0.4018 C.3     1  LIG1          0.25
     31 C         -12.3300   -0.5300    3.0705 C.2     1  LIG1       0.20999999999999996
     32 C           0.0624    0.0366   -0.8541 C.3     1  LIG1       0.08000000000000007
     33 N           9.5442   -3.0549    3.4771 N.pl3   1  LIG1      -0.7800000000000002
     34 N          -7.4756    1.1021    2.3736 N.am    1  LIG1      -0.6399999999999997
     35 N          -3.7934   -0.4027   -0.6146 N.am    1  LIG1      -0.6100000000000003
     36 N           7.7871   -2.3598    2.0880 N.ar    1  LIG1        -0.54
     37 N           7.9520   -0.4747    0.5817 N.ar    1  LIG1      -0.5300000000000002
     38 N          11.1342   -0.7692    2.2260 N.ar    1  LIG1      -0.5800000000000001
     39 N          10.1848    0.5877    0.6639 N.ar    1  LIG1      -0.5099999999999998
     40 O          -5.5158    2.2540    2.1910 O.2     1  LIG1      -0.7100000000000009
     41 O         -15.6387   -3.0114    5.5344 O.co2   1  LIG1      -0.6699999999999999
     42 O         -15.9733   -3.2144    3.3028 O.co2   1  LIG1      -0.6400000000000006
     43 O          11.5336    2.2601   -2.3007 O.3     1  LIG1      -0.7899999999999991
     44 O          -1.6466    1.7086   -0.6173 O.3     1  LIG1      -0.7100000000000009
     45 O          -2.1789   -1.4893   -1.8090 O.2     1  LIG1      -0.6899999999999995
     46 O         -12.3316    0.4786    3.7631 O.2     1  LIG1      -0.4900000000000002
     47 O          12.1871    1.0880   -4.5508 O.3     1  LIG1      -0.7799999999999994
     48 O          10.7727   -0.4597   -6.0332 O.2     1  LIG1      -0.6999999999999993
     49 O          11.6059   -1.2970   -3.6776 O.3     1  LIG1      -0.7400000000000002
     50 O           4.2264    1.1300   -2.7241 O.3     1  LIG1      -0.7300000000000004
     51 O           4.1129    3.6512   -1.9639 O.2     1  LIG1      -0.5700000000000003
     52 O           4.2475   -0.7614   -0.3814 O.3     1  LIG1      -0.6799999999999997
     53 O           3.5101    0.5773    1.7072 O.2     1  LIG1      -0.5800000000000001
     54 O           6.3448    2.3898   -2.1533 O.3     1  LIG1      -0.5199999999999996
     55 O           2.3679    0.9361   -0.6470 O.3     1  LIG1      -0.5999999999999996
     56 O           8.9383    2.0474   -0.7282 O.3     1  LIG1      -0.5399999999999991
     57 O           9.7870    0.5423   -3.8807 O.3     1  LIG1      -0.6500000000000004
     58 O           4.7248    1.7274   -0.2978 O.3     1  LIG1      -0.6300000000000008
     59 P          11.1644   -0.1854   -4.6048 P.3     1  LIG1       1.0399999999999991
     60 P           4.8112    2.3606   -1.8137 P.3     1  LIG1          1.25
     61 P           3.6536    0.6095    0.2425 P.3     1  LIG1       1.3000000000000007
     62 S         -10.8749   -1.1462    2.2311 S.3     1  LIG1      0.07000000000000028
     63 H           1.5232   -1.5856   -0.7745 H       1  LIG1       0.15000000000000002
     64 H          -0.1945   -2.0899   -0.9675 H       1  LIG1       0.16000000000000003
     65 H           0.4189   -1.5405    0.6130 H       1  LIG1          0.14
     66 H           1.1737    0.0256   -2.7427 H       1  LIG1          0.14
     67 H          -0.0959    1.2788   -2.6352 H       1  LIG1          0.14
     68 H          -0.5578   -0.4312   -2.8467 H       1  LIG1       0.15000000000000002
     69 H         -13.8844    1.3966   -2.8370 H       1  LIG1       0.16000000000000003
     70 H         -12.7666    2.2527   -0.7784 H       1  LIG1       0.16000000000000003
     71 H         -15.2039   -0.7203   -2.7155 H       1  LIG1       0.16000000000000003
     72 H         -12.9652    1.0436    1.3454 H       1  LIG1       0.16000000000000003
     73 H         -15.3681   -1.9548   -0.5753 H       1  LIG1       0.15000000000000002
     74 H          -5.5902   -0.7790    1.4090 H       1  LIG1          0.13
     75 H          -6.2785    0.0666    0.0513 H       1  LIG1          0.13
     76 H          -3.5390    0.6428    1.2730 H       1  LIG1       0.10999999999999999
     77 H          -4.3012    1.5951    0.0192 H       1  LIG1       0.09999999999999998
     78 H          -7.8799   -1.0225    2.3104 H       1  LIG1       0.10999999999999999
     79 H          -8.4233   -0.1454    0.8816 H       1  LIG1       0.10999999999999999
     80 H          -9.5424    0.2427    3.7224 H       1  LIG1       0.18000000000000005
     81 H         -10.0670    1.1412    2.2968 H       1  LIG1       0.18000000000000005
     82 H         -15.1669   -2.0533    1.8025 H       1  LIG1       0.17000000000000004
     83 H         -13.1696   -3.0165    4.1997 H       1  LIG1       0.17000000000000004
     84 H         -13.7099   -1.5704    5.0103 H       1  LIG1       0.15000000000000002
     85 H           7.0870    0.7426   -3.1926 H       1  LIG1       0.18999999999999995
     86 H           7.0002    0.5356   -1.3944 H       1  LIG1       0.20999999999999996
     87 H           0.6777    2.0698   -0.3427 H       1  LIG1       0.18999999999999995
     88 H           1.0040    0.8742    0.9434 H       1  LIG1       0.17000000000000004
     89 H           6.2886   -1.6484    0.8475 H       1  LIG1       0.17000000000000004
     90 H          12.2090    0.8118    1.2809 H       1  LIG1       0.20999999999999996
     91 H           8.8450    2.5507   -2.7457 H       1  LIG1       0.15000000000000002
     92 H          11.6470    0.3413   -1.4712 H       1  LIG1       0.06999999999999995
     93 H           9.4355   -0.3573   -2.0454 H       1  LIG1          0.12
     94 H          -1.3902    0.1554    0.7400 H       1  LIG1          0.12
     95 H          10.7941    2.4787    0.0451 H       1  LIG1       0.16000000000000003
     96 H           9.0601   -3.9454    3.4754 H       1  LIG1          0.36
     97 H          10.5539   -3.1382    3.4437 H       1  LIG1          0.36
     98 H          11.9960    1.6167   -3.6910 H       1  LIG1       0.42000000000000004
     99 H          -2.6090    1.8096   -0.5567 H       1  LIG1       0.43000000000000005
    100 H           3.2511    1.1241   -2.6397 H       1  LIG1          0.49
    101 H           4.4197   -0.6475   -1.3355 H       1  LIG1           0.47
@<TRIPOS>BOND
     1    48    59    2
     2    59    47    1
     3    59    57    1
     4    59    49    1
     5    47    98    1
     6    57    25    1
     7    85    14    1
     8    68     2    1
     9    69     3    1
    10    91    20    1
    11    66     2    1
    12    50   100    1
    13    50    60    1
    14    71     5    1
    15    67     2    1
    16    25    20    1
    17    25    93    1
    18    25    24    1
    19     2    32    1
    20    43    24    1
    21    14    54    1
    22    14    20    1
    23    14    86    1
    24    54    60    1
    25    20    56    1
    26    51    60    2
    27     3     5   ar
    28     3     4   ar
    29     5     7   ar
    30    60    58    1
    31    45    29    2
    32    24    92    1
    33    24    30    1
    34   101    52    1
    35    29    35   am
    36    29    26    1
    37    64     1    1
    38    32     1    1
    39    32    26    1
    40    32    15    1
    41    70     4    1
    42    63     1    1
    43     4     6   ar
    44    56    30    1
    45    55    15    1
    46    55    61    1
    47     7    73    1
    48     7    18   ar
    49    44    99    1
    50    44    26    1
    51    35     9    1
    52     1    65    1
    53    30    95    1
    54    30    39    1
    55    52    61    1
    56    26    94    1
    57    87    15    1
    58    58    61    1
    59    15    88    1
    60    77     9    1
    61    75     8    1
    62    61    53    2
    63     9     8    1
    64     9    76    1
    65     6    18   ar
    66     6    72    1
    67    18    12    1
    68    37    28   ar
    69    37    16   ar
    70    39    28   ar
    71    39    17   ar
    72    89    16    1
    73    79    10    1
    74     8    74    1
    75     8    21    1
    76    28    23   ar
    77    16    36   ar
    78    90    17    1
    79    17    38   ar
    80    12    82    1
    81    12    19    2
    82    21    40    2
    83    21    34   am
    84    10    78    1
    85    10    34    1
    86    10    11    1
    87    23    38   ar
    88    23    27   ar
    89    36    27   ar
    90    62    11    1
    91    62    31    1
    92    81    11    1
    93    27    33    1
    94    11    80    1
    95    19    31    1
    96    19    13    1
    97    31    46    2
    98    42    22   ar
    99    97    33    1
   100    96    33    1
   101    13    83    1
   102    13    22    1
   103    13    84    1
   104    22    41   ar
