@<TRIPOS>MOLECULE
CJLVUWULFKHGFB-NZCAJUPMSA-F	11152631	-3008.3646018888535
 99 103 0 0 0
SMALL
MULLIKEN NwChem

@<TRIPOS>ATOM
      1 C           0.1183    5.2571    0.8652 C.3     1  LIG1      -0.45999999999999996
      2 C           2.6560   -4.8286   -1.5986 C.3     1  LIG1      -0.34999999999999964
      3 C          -4.4167   -2.8721    1.8255 C.3     1  LIG1      -0.33999999999999986
      4 C           5.6639   -0.5443    0.4911 C.3     1  LIG1      -0.34999999999999964
      5 C          -2.7109    5.0814   -0.0048 C.3     1  LIG1      -0.2699999999999996
      6 C           2.9408   -5.0291   -3.1062 C.3     1  LIG1       -0.3700000000000001
      7 C          -4.0167   -3.2087    3.2829 C.3     1  LIG1       -0.3600000000000003
      8 C           6.3809   -0.3735    1.8548 C.3     1  LIG1       -0.3700000000000001
      9 C          -4.1114    5.0977   -0.6539 C.3     1  LIG1       -0.3700000000000001
     10 C          -0.4911   -5.3995   -2.0303 C.3     1  LIG1       -0.46999999999999975
     11 C          -4.9830    0.2468    2.2518 C.3     1  LIG1       -0.4900000000000002
     12 C           4.9890    2.5822    0.2147 C.3     1  LIG1       -0.41000000000000014
     13 C           2.7956   -2.1260    0.3227 C.2     1  LIG1      -0.4400000000000004
     14 C          -2.0901   -3.0550   -0.5156 C.2     1  LIG1      -0.41000000000000014
     15 C          -3.0222    1.8462    0.1491 C.2     1  LIG1      -0.45999999999999996
     16 C           1.8048    2.7907   -0.0692 C.2     1  LIG1      -0.3099999999999996
     17 C           0.4294    5.1037   -1.6658 C.3     1  LIG1       -0.3799999999999999
     18 C           1.5257   -3.8980   -1.1894 C.ar    1  LIG1      0.009999999999999787
     19 C          -3.6532   -1.7391    1.1555 C.ar    1  LIG1      0.019999999999999574
     20 C           4.2746    0.0602    0.3624 C.ar    1  LIG1          0.0
     21 C           0.1164   -4.1682   -1.3961 C.ar    1  LIG1      0.03000000000000025
     22 C          -3.9389   -0.3308    1.3261 C.ar    1  LIG1      0.04999999999999982
     23 C           3.9727    1.4631    0.2803 C.ar    1  LIG1      0.009999999999999787
     24 C          -1.6883    4.0450   -0.5641 C.2     1  LIG1      -0.1900000000000004
     25 C           1.6207   -2.7490   -0.4038 C.ar    1  LIG1       0.2400000000000002
     26 C           3.0625   -0.6323    0.2344 C.ar    1  LIG1       0.2699999999999996
     27 C          -2.6332   -1.8446    0.2122 C.ar    1  LIG1       0.21999999999999975
     28 C          -0.5928   -3.1879   -0.7172 C.ar    1  LIG1       0.2599999999999998
     29 C          -3.0680    0.3741    0.4962 C.ar    1  LIG1       0.2699999999999996
     30 C           2.5802    1.5888    0.1309 C.ar    1  LIG1          0.25
     31 C          -1.7095    2.5764   -0.0868 C.2     1  LIG1       0.33999999999999986
     32 C           0.4654    3.0103   -0.1857 C.2     1  LIG1       0.2599999999999998
     33 C           3.8900   -6.2377   -3.4568 C.2     1  LIG1       0.5199999999999996
     34 C          -4.7586   -4.4138    3.9792 C.2     1  LIG1       0.5099999999999998
     35 C           7.8609   -0.9046    1.9191 C.2     1  LIG1       0.5099999999999998
     36 C          -5.0458    6.3094   -0.2647 C.2     1  LIG1       0.5099999999999998
     37 C          -0.9840   -5.4369   -3.5425 C.2     1  LIG1       0.5300000000000002
     38 C          -6.5387    0.0590    1.9601 C.2     1  LIG1       0.5300000000000002
     39 C           5.1007    3.5898    1.4337 C.2     1  LIG1           0.5
     40 C           0.0356    6.5631   -2.1253 C.2     1  LIG1       0.5199999999999996
     41 C          -0.1624    4.4138   -0.3999 C.2     1  LIG1      0.04999999999999982
     42 N           0.3217   -2.3225   -0.1450 N.ar    1  LIG1      -0.7000000000000002
     43 N          -2.3087   -0.5562   -0.1908 N.ar    1  LIG1      -0.6799999999999997
     44 N           2.0588    0.3047    0.1253 N.ar    1  LIG1      -0.7300000000000004
     45 N          -0.5370    2.0286    0.0095 N.2     1  LIG1      -0.5700000000000003
     46 O           4.4854   -6.1655   -4.5742 O.co2   1  LIG1      -0.6999999999999993
     47 O           3.9622   -7.1905   -2.6267 O.co2   1  LIG1      -0.6799999999999997
     48 O          -5.3988   -5.2202    3.2497 O.co2   1  LIG1      -0.6799999999999997
     49 O          -4.6108   -4.4798    5.2388 O.co2   1  LIG1      -0.7100000000000009
     50 O           8.5456   -0.8519    0.8571 O.co2   1  LIG1      -0.6799999999999997
     51 O           8.2587   -1.3068    3.0557 O.co2   1  LIG1      -0.6999999999999993
     52 O          -4.8646    6.8453    0.8624 O.co2   1  LIG1      -0.6799999999999997
     53 O          -5.9301    6.6097   -1.1232 O.co2   1  LIG1      -0.6999999999999993
     54 O          -0.5638   -4.5583   -4.3321 O.co2   1  LIG1      -0.6799999999999997
     55 O          -1.7379   -6.4242   -3.7984 O.co2   1  LIG1      -0.6999999999999993
     56 O          -6.8918   -0.6076    0.9568 O.co2   1  LIG1      -0.6699999999999999
     57 O          -7.2758    0.6208    2.8232 O.co2   1  LIG1      -0.6999999999999993
     58 O           6.0249    3.3651    2.2642 O.co2   1  LIG1      -0.6600000000000001
     59 O           4.2892    4.5543    1.4243 O.co2   1  LIG1      -0.6600000000000001
     60 O          -0.4479    7.3717   -1.2862 O.co2   1  LIG1      -0.6500000000000004
     61 O           0.3305    6.8097   -3.3320 O.co2   1  LIG1      -0.6899999999999995
     62 H           1.2001    5.2925    1.0432 H       1  LIG1          0.13
     63 H          -0.3489    4.7971    1.7466 H       1  LIG1          0.13
     64 H          -0.2530    6.2743    0.7270 H       1  LIG1       0.16000000000000003
     65 H           2.4540   -5.8321   -1.1974 H       1  LIG1          0.13
     66 H           3.5868   -4.5100   -1.1070 H       1  LIG1          0.13
     67 H          -4.3220   -3.7965    1.2421 H       1  LIG1          0.12
     68 H          -5.4808   -2.6095    1.7975 H       1  LIG1          0.13
     69 H           6.3335   -0.1115   -0.2646 H       1  LIG1          0.13
     70 H           5.6180   -1.6161    0.2503 H       1  LIG1          0.14
     71 H          -2.2655    6.0659   -0.1795 H       1  LIG1       0.15000000000000002
     72 H          -2.8187    4.9787    1.0820 H       1  LIG1          0.12
     73 H           3.3764   -4.1173   -3.5369 H       1  LIG1          0.12
     74 H           1.9863   -5.1687   -3.6345 H       1  LIG1          0.13
     75 H          -2.9374   -3.4325    3.3165 H       1  LIG1          0.13
     76 H          -4.1449   -2.3283    3.9271 H       1  LIG1          0.12
     77 H           5.8029   -0.8651    2.6499 H       1  LIG1       0.10999999999999999
     78 H           6.3953    0.6987    2.1068 H       1  LIG1          0.14
     79 H          -4.6658    4.1776   -0.4120 H       1  LIG1          0.14
     80 H          -4.0106    5.1040   -1.7492 H       1  LIG1          0.12
     81 H           0.2398   -6.2196   -1.9615 H       1  LIG1          0.14
     82 H          -1.3531   -5.7285   -1.4315 H       1  LIG1          0.13
     83 H          -4.8382   -0.1621    3.2629 H       1  LIG1          0.14
     84 H          -4.8333    1.3301    2.3607 H       1  LIG1          0.14
     85 H           5.9798    2.1372    0.0677 H       1  LIG1          0.13
     86 H           4.7659    3.2023   -0.6675 H       1  LIG1          0.13
     87 H           3.7006   -2.6385   -0.0182 H       1  LIG1       0.18999999999999995
     88 H           2.7105   -2.3909    1.3952 H       1  LIG1       0.17000000000000004
     89 H          -2.5604   -3.1209   -1.5105 H       1  LIG1       0.17000000000000004
     90 H          -2.4513   -3.9423    0.0227 H       1  LIG1       0.18000000000000005
     91 H          -3.5564    2.3996    0.9340 H       1  LIG1       0.19999999999999996
     92 H          -3.6371    2.0328   -0.7499 H       1  LIG1       0.18999999999999995
     93 H           2.4371    3.6767   -0.0869 H       1  LIG1       0.15000000000000002
     94 H           0.2670    4.4443   -2.5289 H       1  LIG1          0.12
     95 H           1.5224    5.1380   -1.5401 H       1  LIG1          0.14
     96 H          -1.8843    3.9851   -1.6503 H       1  LIG1       0.15000000000000002
     97 H           0.0598   -1.6546    0.5666 H       1  LIG1          0.36
     98 H          -1.5084   -0.3082   -0.7541 H       1  LIG1          0.36
     99 H           1.0792    0.1313   -0.0487 H       1  LIG1           0.36
@<TRIPOS>BOND
     1    46    33   ar
     2    54    37   ar
     3    55    37   ar
     4    74     6    1
     5    37    10    1
     6    73     6    1
     7    33     6    1
     8    33    47   ar
     9    61    40   ar
    10     6     2    1
    11    94    17    1
    12    40    17    1
    13    40    60   ar
    14    10    81    1
    15    10    82    1
    16    10    21    1
    17    80     9    1
    18    17    95    1
    19    17    41    1
    20    96    24    1
    21     2    65    1
    22     2    18    1
    23     2    66    1
    24    89    14    1
    25    21    18   ar
    26    21    28   ar
    27    18    25   ar
    28    53    36   ar
    29    98    43    1
    30    92    15    1
    31    28    14    2
    32    28    42   ar
    33    86    12    1
    34     9    79    1
    35     9    36    1
    36     9     5    1
    37    24    41    2
    38    24    31    1
    39    24     5    1
    40    14    90    1
    41    14    27    1
    42    25    42   ar
    43    25    13    1
    44    41    32    1
    45    41     1    1
    46    36    52   ar
    47    69     4    1
    48    43    27   ar
    49    43    29   ar
    50    32    16    1
    51    32    45    2
    52    71     5    1
    53    42    97    1
    54    93    16    1
    55    31    45    1
    56    31    15    2
    57    16    30    2
    58    99    44    1
    59    87    13    1
    60     5    72    1
    61    85    12    1
    62    44    30   ar
    63    44    26   ar
    64    30    23   ar
    65    15    29    1
    66    15    91    1
    67    27    19   ar
    68    12    23    1
    69    12    39    1
    70    26    13    2
    71    26    20   ar
    72    70     4    1
    73    23    20   ar
    74    13    88    1
    75    20     4    1
    76     4     8    1
    77    29    22   ar
    78    64     1    1
    79    50    35   ar
    80     1    62    1
    81     1    63    1
    82    56    38   ar
    83    19    22   ar
    84    19     3    1
    85    67     3    1
    86    22    11    1
    87    59    39   ar
    88    39    58   ar
    89    68     3    1
    90     3     7    1
    91     8    35    1
    92     8    78    1
    93     8    77    1
    94    35    51   ar
    95    38    11    1
    96    38    57   ar
    97    11    84    1
    98    11    83    1
    99    48    34   ar
   100     7    75    1
   101     7    76    1
   102     7    34    1
   103    34    49   ar
