@<TRIPOS>MOLECULE
CKLJMWTZIZZHCS-REOHCLBHSA-M	6044404	-511.7726447816894
 15 14 0 0 0
SMALL
MULLIKEN NwChem

@<TRIPOS>ATOM
      1 CB          0.4581    1.0624   -0.7040 C.3     1  ASP1       -0.33999999999999986
      2 CA         -0.0806   -0.3185   -1.1522 C.3     1  ASP1       -0.04999999999999982
      3 CG         -0.1020    1.3987    0.7231 C.2     1  ASP1       0.5199999999999996
      4 C           0.3905   -1.3925   -0.1736 C.2     1  ASP1       0.5800000000000001
      5 N          -1.5359   -0.2841   -1.2999 N.3     1  ASP1      -0.7999999999999998
      6 OD1        -1.2919    1.8274    0.7316 O.co2   1  ASP1      -0.6600000000000001
      7 OD2         0.6588    1.1330    1.6817 O.co2   1  ASP1      -0.6600000000000001
      8 OXT        -0.3179   -2.1334    0.4780 O.2     1  ASP1      -0.5199999999999996
      9 O           1.7477   -1.5075   -0.1490 O.3     1  ASP1      -0.5899999999999999
     10 HB1         0.1120    1.8008   -1.4381 H       1  ASP1          0.14
     11 HB2         1.5517    1.0357   -0.6946 H       1  ASP1          0.14
     12 HA          0.3898   -0.5885   -2.1151 H       1  ASP1       0.17000000000000004
     13 H1         -1.9099   -1.1646   -0.9460 H       1  ASP1       0.31000000000000005
     14 H2         -1.8584    0.4375   -0.6406 H       1  ASP1       0.31999999999999995
     15 H           1.9320   -2.1421    0.5667 H       1  ASP1       0.43999999999999995
@<TRIPOS>BOND
     1    12     2    1
     2    10     1    1
     3     5     2    1
     4     5    13    1
     5     5    14    1
     6     2     1    1
     7     2     4    1
     8     1    11    1
     9     1     3    1
    10     4     9    1
    11     4     8    2
    12     9    15    1
    13     3     6   ar
    14     3     7   ar
