@<TRIPOS>MOLECULE
CKTSBUTUHBMZGZ-SHYZEUOFSA-N	6044405	-815.7255495931164
 29 30 0 0 0
SMALL
MULLIKEN NwChem

@<TRIPOS>ATOM
      1 C5         -0.8201    0.9624   -2.6187 C.2     1    C1       -0.20999999999999996
      2 C6         -0.7826    0.5624   -1.3368 C.2     1    C1       0.07000000000000028
      3 C2*         1.1523    0.1605    1.2918 C.3     1    C1       -0.33000000000000007
      4 C5*        -1.6769    1.2809    2.3312 C.3     1    C1       -0.05999999999999961
      5 C3*         0.5616    0.0736    2.7053 C.3     1    C1       0.09999999999999964
      6 C4*        -0.9398   -0.0610    2.4003 C.3     1    C1       0.08999999999999986
      7 C4          0.0679    0.3545   -3.6136 C.2     1    C1       0.4400000000000004
      8 C1*         0.2438   -0.7902    0.4964 C.3     1    C1       0.2699999999999996
      9 C2          0.9277   -0.9599   -1.8864 C.3     1    C1          0.75
     10 N4          0.0221    0.7259   -4.8425 N.pl3   1    C1        -0.75
     11 N3          0.9506   -0.6383   -3.1314 N.2     1    C1      -0.5999999999999996
     12 N1          0.0971   -0.4426   -0.9224 N.pl3   1    C1         -0.5
     13 O5*        -1.6846    1.9420    3.5863 O.3     1    C1      -0.6600000000000001
     14 O3*         1.0711   -1.0252    3.4519 O.3     1    C1      -0.6799999999999997
     15 O2          1.7928   -1.8867   -1.4128 O.3     1    C1      -0.6199999999999992
     16 O4*        -1.0328   -0.7316    1.1248 O.3     1    C1      -0.5399999999999991
     17 H5         -1.5153    1.7254   -2.9461 H       1    C1       0.17000000000000004
     18 H6         -1.4350    0.9400   -0.5627 H       1    C1       0.21999999999999997
     19 H2*1        1.0580    1.1748    0.8886 H       1    C1       0.18999999999999995
     20 H2*2        2.2034   -0.1330    1.2593 H       1    C1       0.18000000000000005
     21 H5*1       -1.1599    1.9549    1.6397 H       1    C1       0.16000000000000003
     22 H5*2       -2.6894    1.1128    1.9337 H       1    C1       0.16000000000000003
     23 H3*         0.7594    0.9585    3.3132 H       1    C1       0.17000000000000004
     24 H4*        -1.4168   -0.7021    3.1533 H       1    C1       0.16000000000000003
     25 H1*         0.6151   -1.8182    0.5215 H       1    C1       0.19999999999999996
     26 H4          0.7106    0.1856   -5.3760 H       1    C1       0.29000000000000004
     27 H5*        -2.2459    1.4336    4.1928 H       1    C1       0.43000000000000005
     28 H3*         0.8390   -1.8465    2.9894 H       1    C1       0.43999999999999995
     29 H2          2.3001   -2.1724   -2.1943 H       1    C1       0.45999999999999996
@<TRIPOS>BOND
     1    26    10    1
     2    10     7    1
     3     7    11    2
     4     7     1    1
     5    11     9    1
     6    17     1    1
     7     1     2    2
     8    29    15    1
     9     9    15    1
    10     9    12    1
    11     2    12    1
    12     2    18    1
    13    12     8    1
    14     8    25    1
    15     8    16    1
    16     8     3    1
    17    19     3    1
    18    16     6    1
    19    20     3    1
    20     3     5    1
    21    21     4    1
    22    22     4    1
    23     4     6    1
    24     4    13    1
    25     6     5    1
    26     6    24    1
    27     5    23    1
    28     5    14    1
    29    28    14    1
    30    13    27    1
