@<TRIPOS>MOLECULE
CLGFIVUFZRGQRP-UHFFFAOYSA-N	6044406	-617.674497431457
 17 18 0 0 0
SMALL
MULLIKEN NwChem

@<TRIPOS>ATOM
      1 C          -0.3250   -0.5891    0.0006 C.2     1  LIG1       0.16000000000000014
      2 C          -0.2762    0.7934   -0.0002 C.3     1  LIG1       0.6799999999999997
      3 C           0.9400   -1.2414    0.0020 C.2     1  LIG1       0.5099999999999998
      4 C           2.1236    0.7984    0.0039 C.cat   1  LIG1       0.6100000000000003
      5 C          -2.3454    0.0598   -0.0030 C.2     1  LIG1          0.71
      6 N           3.1745    1.5330    0.0061 N.pl3   1  LIG1      -0.7599999999999998
      7 N          -1.6506   -1.0344   -0.0013 N.2     1  LIG1      -0.5999999999999996
      8 N           0.8791    1.4947    0.0010 N.pl3   1  LIG1      -0.7300000000000004
      9 N          -1.5798    1.2213   -0.0028 N.pl3   1  LIG1      -0.7000000000000002
     10 N           2.0756   -0.5897    0.0037 N.2     1  LIG1      -0.6200000000000001
     11 O           0.9655   -2.5827    0.0012 O.2     1  LIG1      -0.6199999999999992
     12 O          -3.6826    0.1975   -0.0048 O.2     1  LIG1      -0.6300000000000008
     13 H           3.9953    0.9272    0.0078 H       1  LIG1       0.30000000000000004
     14 H           0.9332    2.5042   -0.0005 H       1  LIG1          0.38
     15 H          -1.9348    2.1661   -0.0022 H       1  LIG1           0.4
     16 H           1.9103   -2.8273    0.0016 H       1  LIG1       0.44999999999999996
     17 H          -4.0518   -0.7024   -0.0029 H       1  LIG1           0.47
@<TRIPOS>BOND
     1    12     5    1
     2    12    17    1
     3     5     9    1
     4     5     7    2
     5     9    15    1
     6     9     2    1
     7     7     1    1
     8    14     8    1
     9     2     1    1
    10     2     8    1
    11     1     3    2
    12     8     4    1
    13    11    16    1
    14    11     3    1
    15     3    10    1
    16    10     4    2
    17     4     6    1
    18     6    13    1
