@<TRIPOS>MOLECULE
CLUWOWRTHNNBBU-UHFFFAOYSA-N	6044408	-630.5583990236997
 14 13 0 0 0
SMALL
MULLIKEN NwChem

@<TRIPOS>ATOM
      1 C           0.4188    1.2351   -1.7262 C.3     1  LIG1      -0.5899999999999999
      2 C          -0.4682   -0.9997    1.2033 C.3     1  LIG1       -0.33999999999999986
      3 C          -0.1395   -2.0165    0.1335 C.2     1  LIG1       0.2599999999999998
      4 C           0.1237    0.3926    0.9754 C.3     1  LIG1      -0.41999999999999993
      5 O           0.6508   -1.8485   -0.7700 O.2     1  LIG1      -0.4299999999999997
      6 S          -0.7489    1.3734   -0.3210 S.3     1  LIG1          0.0
      7 H          -0.0569    1.7303   -2.5773 H       1  LIG1       0.18999999999999995
      8 H           0.6111    0.1884   -1.9648 H       1  LIG1       0.19999999999999996
      9 H           1.3600    1.7462   -1.5011 H       1  LIG1       0.18999999999999995
     10 H          -0.0974   -1.4243    2.1527 H       1  LIG1       0.19999999999999996
     11 H          -1.5602   -0.9556    1.3126 H       1  LIG1       0.18999999999999995
     12 H          -0.6661   -2.9912    0.2454 H       1  LIG1       0.15000000000000002
     13 H           1.1793    0.3171    0.6985 H       1  LIG1       0.19999999999999996
     14 H           0.0615    0.9717    1.9014 H       1  LIG1       0.19999999999999996
@<TRIPOS>BOND
     1     7     1    1
     2     8     1    1
     3     1     9    1
     4     1     6    1
     5     5     3    2
     6     6     4    1
     7     3    12    1
     8     3     2    1
     9    13     4    1
    10     4     2    1
    11     4    14    1
    12     2    11    1
    13     2    10    1
