@<TRIPOS>MOLECULE
CNSJRYUMVMWNMC-RITPCOANSA-L	11152629	-1501.56019679598
 26 25 0 0 0
SMALL
MULLIKEN NwChem

@<TRIPOS>ATOM
      1 C           4.8327   -0.8527    0.8970 C.3     1  LIG1      -0.5899999999999999
      2 C          -1.7828    0.9090   -1.2712 C.3     1  LIG1       -0.11000000000000032
      3 C           2.6830    0.0015   -0.7592 C.3     1  LIG1       -0.4299999999999997
      4 C          -0.3145    0.4561   -1.3304 C.2     1  LIG1       0.41999999999999993
      5 C           1.6335   -1.0737   -0.4510 C.3     1  LIG1       0.15000000000000036
      6 C           0.2200   -0.4316   -0.2007 C.3     1  LIG1       0.07000000000000028
      7 O           0.3179    0.7273   -2.3534 O.2     1  LIG1      -0.5199999999999996
      8 O           1.9165   -1.7216    0.7887 O.3     1  LIG1      -0.6999999999999993
      9 O           0.2980    0.2088    1.0216 O.3     1  LIG1      -0.7799999999999994
     10 O          -2.0755   -0.1213    2.0780 O.3     1  LIG1      -0.7799999999999994
     11 O          -4.4138    0.6893    1.4096 O.3     1  LIG1      -0.6999999999999993
     12 O          -3.2257   -1.1780   -0.0138 O.2     1  LIG1      -0.7400000000000002
     13 O          -2.3333    1.2472   -0.0322 O.3     1  LIG1      -0.6099999999999994
     14 P          -3.1583    0.0486    0.8769 P.3     1  LIG1       1.0500000000000007
     15 S           4.4402   -0.5648   -0.8707 S.3     1  LIG1      -0.030000000000001137
     16 H           4.0908   -1.5396    1.3055 H       1  LIG1       0.20999999999999996
     17 H           5.8437   -1.2730    0.9569 H       1  LIG1       0.18000000000000005
     18 H           4.8028    0.0891    1.4576 H       1  LIG1       0.18000000000000005
     19 H          -2.3388    0.0664   -1.7195 H       1  LIG1       0.17000000000000004
     20 H          -1.8585    1.7709   -1.9543 H       1  LIG1       0.15000000000000002
     21 H           2.4678    0.4574   -1.7276 H       1  LIG1       0.18000000000000005
     22 H           2.6072    0.7747    0.0129 H       1  LIG1       0.16000000000000003
     23 H           1.6192   -1.8245   -1.2532 H       1  LIG1          0.12
     24 H          -0.4990   -1.2863   -0.1894 H       1  LIG1       0.09999999999999998
     25 H           1.3835   -1.0924    1.3749 H       1  LIG1          0.39
     26 H          -1.1313    0.0150    1.7070 H       1  LIG1       0.43999999999999995
@<TRIPOS>BOND
     1     7     4    2
     2    20     2    1
     3    21     3    1
     4    19     2    1
     5     4     2    1
     6     4     6    1
     7     2    13    1
     8    23     5    1
     9    15     3    1
    10    15     1    1
    11     3     5    1
    12     3    22    1
    13     5     6    1
    14     5     8    1
    15     6    24    1
    16     6     9    1
    17    13    14    1
    18    12    14    2
    19     8    25    1
    20    14    11    1
    21    14    10    1
    22     1    17    1
    23     1    16    1
    24     1    18    1
    25    26    10    1
