@<TRIPOS>MOLECULE
COLNVLDHVKWLRT-QMMMGPOBSA-N	6044412	-554.6558943897285
 23 23 0 0 0
SMALL
MULLIKEN NwChem

@<TRIPOS>ATOM
      1 CZ         -3.0378   -0.9795    0.9519 C.ar    1  PHE1      -0.15000000000000036
      2 CE2        -2.4165    0.2048    1.3524 C.ar    1  PHE1      -0.15000000000000036
      3 CE1        -2.2642   -2.0308    0.4550 C.ar    1  PHE1      -0.15000000000000036
      4 CD2        -1.0301    0.3352    1.2575 C.ar    1  PHE1      -0.20000000000000018
      5 CD1        -0.8789   -1.8960    0.3610 C.ar    1  PHE1      -0.20000000000000018
      6 CB          1.2532   -0.5575    0.6171 C.3     1  PHE1      -0.3600000000000003
      7 CG         -0.2438   -0.7135    0.7617 C.ar    1  PHE1      0.13999999999999968
      8 CA          1.6881   -0.0618   -0.7832 C.3     1  PHE1       -0.040000000000000036
      9 C           1.0245    1.2896   -1.0475 C.2     1  PHE1       0.5899999999999999
     10 N           3.1488    0.0223   -0.8288 N.3     1  PHE1        -0.75
     11 OXT         1.3425    2.3178   -0.4852 O.2     1  PHE1      -0.5199999999999996
     12 O           0.0388    1.2257   -1.9683 O.3     1  PHE1      -0.5800000000000001
     13 HZ         -4.1167   -1.0846    1.0293 H       1  PHE1       0.15000000000000002
     14 HE2        -3.0104    1.0270    1.7434 H       1  PHE1       0.15000000000000002
     15 HE1        -2.7395   -2.9575    0.1442 H       1  PHE1       0.16000000000000003
     16 HD2        -0.5486    1.2605    1.5650 H       1  PHE1       0.15000000000000002
     17 HD1        -0.2798   -2.7186   -0.0243 H       1  PHE1       0.15000000000000002
     18 HB1         1.6326    0.1596    1.3555 H       1  PHE1       0.17000000000000004
     19 HB2         1.7689   -1.5079    0.7891 H       1  PHE1       0.17000000000000004
     20 HA          1.3487   -0.7768   -1.5386 H       1  PHE1       0.17000000000000004
     21 H1          3.4523    0.2499   -1.7750 H       1  PHE1       0.33999999999999997
     22 H2          3.4394    0.8080   -0.2456 H       1  PHE1       0.32999999999999996
     23 H          -0.3444    2.1220   -2.0307 H       1  PHE1       0.44999999999999996
@<TRIPOS>BOND
     1    23    12    1
     2    12     9    1
     3    21    10    1
     4    20     8    1
     5     9     8    1
     6     9    11    2
     7    10     8    1
     8    10    22    1
     9     8     6    1
    10    17     5    1
    11    15     3    1
    12     5     3   ar
    13     5     7   ar
    14     3     1   ar
    15     6     7    1
    16     6    19    1
    17     6    18    1
    18     7     4   ar
    19     1    13    1
    20     1     2   ar
    21     4     2   ar
    22     4    16    1
    23     2    14    1
