@<TRIPOS>MOLECULE
CQGVNMQHZQJNII-UUSBZYPOSA-J	11152626	-4294.58130641307
 107 109 0 0 0
SMALL
MULLIKEN NwChem

@<TRIPOS>ATOM
      1 C          15.9893   -0.0153   -2.2232 C.3     1  LIG1      -0.45999999999999996
      2 C           1.3530   -2.5558    0.5214 C.3     1  LIG1      -0.4800000000000004
      3 C           0.5136   -0.6616   -0.8956 C.3     1  LIG1         -0.5
      4 C          15.7778    1.4782   -2.5183 C.3     1  LIG1        -0.25
      5 C          14.4624    2.0749   -1.9833 C.3     1  LIG1      -0.2699999999999996
      6 C          14.3658    2.3285   -0.4685 C.3     1  LIG1      -0.2599999999999998
      7 C          14.3839    1.0625    0.4116 C.3     1  LIG1      -0.28000000000000025
      8 C          13.5538    1.1932    1.7089 C.3     1  LIG1      -0.3099999999999996
      9 C          12.0851    1.4822    1.4553 C.2     1  LIG1      -0.1299999999999999
     10 C          11.1780    0.6467    0.9334 C.2     1  LIG1      -0.15000000000000036
     11 C          11.4563   -0.7839    0.5154 C.3     1  LIG1       -0.3899999999999997
     12 C           6.3038    0.8906    2.0330 C.3     1  LIG1       -0.33000000000000007
     13 C           4.9446    0.4321    1.4435 C.3     1  LIG1       -0.1200000000000001
     14 C           8.1038   -0.6728    0.4719 C.3     1  LIG1       -0.1200000000000001
     15 C           8.4711   -1.4323   -0.8172 C.3     1  LIG1       -0.4299999999999997
     16 C          -6.6255   -1.4959   -1.8130 C.3     1  LIG1       -0.09999999999999964
     17 C          -0.2078   -0.8265    1.4992 C.3     1  LIG1       -0.04999999999999982
     18 C         -10.6566    3.4582   -2.1586 C.ar    1  LIG1       0.16000000000000014
     19 C          -7.7378    3.3196    1.0528 C.ar    1  LIG1       0.23000000000000043
     20 C          -7.1559   -0.9153   -0.5140 C.3     1  LIG1       0.13999999999999968
     21 C           7.3116    1.5162    1.0309 C.2     1  LIG1       0.46999999999999975
     22 C          11.4385   -0.8600   -1.0098 C.2     1  LIG1       0.29000000000000004
     23 C          -9.0287    4.3530   -0.2617 C.ar    1  LIG1       0.1900000000000004
     24 C          -9.2603   -0.0608    0.4210 C.3     1  LIG1       0.08999999999999986
     25 C          -8.5811   -1.3700   -0.1121 C.3     1  LIG1       0.05999999999999961
     26 C           2.1999   -0.2115    0.9440 C.3     1  LIG1       0.05999999999999961
     27 C          -9.7631    5.2565   -1.0437 C.ar    1  LIG1       0.4500000000000002
     28 C          -9.2011    2.9871   -0.5508 C.ar    1  LIG1          0.54
     29 C           2.9232   -0.5921    2.2919 C.2     1  LIG1       0.45999999999999996
     30 C          -8.0579    0.9069    0.4513 C.3     1  LIG1       0.2599999999999998
     31 C           0.9591   -1.0688    0.5269 C.3     1  LIG1       0.07000000000000028
     32 N          -9.6844    6.6209   -0.8318 N.pl3   1  LIG1      -0.7800000000000002
     33 N           8.1306    0.7384    0.2886 N.am    1  LIG1      -0.5899999999999999
     34 N           4.1883   -0.2640    2.4687 N.am    1  LIG1      -0.6100000000000003
     35 N         -10.5806    4.7973   -2.0029 N.ar    1  LIG1        -0.54
     36 N         -10.0182    2.4966   -1.4961 N.ar    1  LIG1      -0.5300000000000002
     37 N          -8.1052    4.5457    0.7488 N.ar    1  LIG1      -0.5700000000000003
     38 N          -8.3667    2.3305    0.3296 N.ar    1  LIG1      -0.5199999999999996
     39 O           7.3390    2.7673    0.9517 O.2     1  LIG1      -0.7100000000000009
     40 O          12.4780   -0.8076   -1.6621 O.2     1  LIG1      -0.4800000000000004
     41 O          -9.8543   -0.2384    1.6838 O.3     1  LIG1      -0.6899999999999995
     42 O           1.8573    1.1894    1.0426 O.3     1  LIG1      -0.6899999999999995
     43 O           2.2240   -1.2147    3.1513 O.2     1  LIG1      -0.6899999999999995
     44 O         -10.1307   -3.9543   -0.2999 O.2     1  LIG1      -0.7100000000000009
     45 O          -8.8314   -4.6316    1.9060 O.3     1  LIG1      -0.6799999999999997
     46 O          -7.6202   -4.2701   -0.3959 O.3     1  LIG1        -0.75
     47 O          -4.9795   -3.1590   -0.0995 O.3     1  LIG1      -0.7400000000000002
     48 O          -3.8473   -3.5155   -2.4577 O.2     1  LIG1      -0.6199999999999992
     49 O          -3.9110   -1.4053    1.5081 O.3     1  LIG1      -0.7100000000000009
     50 O          -2.6560    0.5815    0.3890 O.2     1  LIG1      -0.6199999999999992
     51 O          -5.2076   -1.3605   -1.9279 O.3     1  LIG1      -0.5800000000000001
     52 O          -1.3980   -1.5830    1.0932 O.3     1  LIG1      -0.5500000000000007
     53 O          -7.2288    0.5319   -0.6137 O.3     1  LIG1      -0.5299999999999994
     54 O          -8.5440   -2.3028    0.9454 O.3     1  LIG1      -0.6400000000000006
     55 O          -2.9748   -1.7235   -0.8402 O.3     1  LIG1      -0.6300000000000008
     56 P          -8.9082   -3.9486    0.5749 P.3     1  LIG1          1.08
     57 P          -4.2887   -2.6176   -1.3561 P.3     1  LIG1       1.1799999999999997
     58 P          -2.7393   -0.8927    0.5430 P.3     1  LIG1       1.2200000000000006
     59 S           9.9005   -0.8928   -1.8974 S.3     1  LIG1      0.03999999999999915
     60 H          15.0844   -0.5858   -2.4590 H       1  LIG1       0.15000000000000002
     61 H          16.8234   -0.4187   -2.8146 H       1  LIG1          0.14
     62 H          16.2139   -0.1938   -1.1679 H       1  LIG1       0.15000000000000002
     63 H           2.1762   -2.7329   -0.1863 H       1  LIG1          0.14
     64 H           0.4996   -3.1730    0.2173 H       1  LIG1          0.14
     65 H           1.6832   -2.8422    1.5228 H       1  LIG1       0.15000000000000002
     66 H          -0.2915   -1.3119   -1.2517 H       1  LIG1       0.16000000000000003
     67 H           1.3528   -0.7344   -1.6017 H       1  LIG1       0.15000000000000002
     68 H           0.1180    0.3625   -0.9230 H       1  LIG1       0.15000000000000002
     69 H          16.6321    2.0597   -2.1345 H       1  LIG1          0.13
     70 H          15.7882    1.6141   -3.6103 H       1  LIG1          0.13
     71 H          14.2956    3.0346   -2.4954 H       1  LIG1          0.12
     72 H          13.6328    1.4173   -2.2728 H       1  LIG1          0.13
     73 H          13.4149    2.8477   -0.2981 H       1  LIG1          0.13
     74 H          15.1606    3.0242   -0.1524 H       1  LIG1          0.12
     75 H          15.4200    0.7943    0.6701 H       1  LIG1          0.13
     76 H          13.9750    0.2320   -0.1697 H       1  LIG1       0.16000000000000003
     77 H          13.6688    0.2604    2.2818 H       1  LIG1       0.15000000000000002
     78 H          13.9797    1.9888    2.3387 H       1  LIG1          0.14
     79 H          11.7421    2.4886    1.6952 H       1  LIG1          0.14
     80 H          10.1425    0.9776    0.7390 H       1  LIG1       0.18000000000000005
     81 H          12.4404   -1.1419    0.8383 H       1  LIG1       0.18000000000000005
     82 H          10.6834   -1.4369    0.9334 H       1  LIG1       0.18000000000000005
     83 H           6.0988    1.6501    2.7955 H       1  LIG1       0.09999999999999998
     84 H           6.7360    0.0262    2.5586 H       1  LIG1       0.10999999999999999
     85 H           4.4421    1.3269    1.0340 H       1  LIG1       0.10999999999999999
     86 H           5.1595   -0.2079    0.5569 H       1  LIG1       0.10999999999999999
     87 H           8.7764   -1.0440    1.2844 H       1  LIG1       0.10999999999999999
     88 H           7.1203   -1.1116    0.7272 H       1  LIG1          0.14
     89 H           7.6577   -1.2967   -1.5395 H       1  LIG1       0.19999999999999996
     90 H           8.5941   -2.5080   -0.6349 H       1  LIG1       0.18999999999999995
     91 H          -7.0704   -0.9476   -2.6529 H       1  LIG1       0.18000000000000005
     92 H          -6.9408   -2.5423   -1.8701 H       1  LIG1       0.18999999999999995
     93 H           0.0773   -1.1759    2.4902 H       1  LIG1       0.17000000000000004
     94 H          -0.4537    0.2364    1.5336 H       1  LIG1       0.15000000000000002
     95 H         -11.3329    3.1227   -2.9436 H       1  LIG1       0.17000000000000004
     96 H          -6.9979    3.0568    1.7980 H       1  LIG1       0.21999999999999997
     97 H          -6.4753   -1.1835    0.3010 H       1  LIG1       0.17000000000000004
     98 H         -10.0015    0.3051   -0.2956 H       1  LIG1       0.17000000000000004
     99 H          -9.1460   -1.7800   -0.9556 H       1  LIG1       0.17000000000000004
    100 H           2.9274   -0.3370    0.1215 H       1  LIG1          0.12
    101 H          -7.5554    0.7920    1.4255 H       1  LIG1       0.17000000000000004
    102 H          -8.8345    6.9132   -0.3643 H       1  LIG1          0.37
    103 H          -9.9295    7.1710   -1.6454 H       1  LIG1          0.37
    104 H          -9.5727   -1.1547    1.9212 H       1  LIG1       0.43999999999999995
    105 H           1.5159    1.4541    0.1738 H       1  LIG1       0.42000000000000004
    106 H          -6.7490   -3.9926   -0.0309 H       1  LIG1       0.45999999999999996
    107 H          -4.3998   -2.1828    1.0815 H       1  LIG1           0.49
@<TRIPOS>BOND
     1    70     4    1
     2    95    18    1
     3    61     1    1
     4    91    16    1
     5     4     1    1
     6     4    69    1
     7     4     5    1
     8    71     5    1
     9    60     1    1
    10    48    57    2
    11    72     5    1
    12     1    62    1
    13    18    35   ar
    14    18    36   ar
    15    35    27   ar
    16     5     6    1
    17    51    16    1
    18    51    57    1
    19    59    22    1
    20    59    15    1
    21    92    16    1
    22    16    20    1
    23    40    22    2
    24   103    32    1
    25    67     3    1
    26    89    15    1
    27    36    28   ar
    28    57    55    1
    29    57    47    1
    30    66     3    1
    31    27    32    1
    32    27    23   ar
    33    22    11    1
    34    99    25    1
    35    68     3    1
    36     3    31    1
    37    55    58    1
    38    32   102    1
    39    15    90    1
    40    15    14    1
    41    53    20    1
    42    53    30    1
    43    28    23   ar
    44    28    38   ar
    45    20    25    1
    46    20    97    1
    47     6    73    1
    48     6    74    1
    49     6     7    1
    50    46   106    1
    51    46    56    1
    52    44    56    2
    53    98    24    1
    54    23    37   ar
    55    63     2    1
    56    76     7    1
    57    25    24    1
    58    25    54    1
    59   100    26    1
    60   105    42    1
    61    64     2    1
    62    33    14    1
    63    33    21   am
    64    38    30    1
    65    38    19   ar
    66    50    58    2
    67     7    75    1
    68     7     8    1
    69    24    30    1
    70    24    41    1
    71    30   101    1
    72    14    88    1
    73    14    87    1
    74    11    81    1
    75    11    82    1
    76    11    10    1
    77     2    31    1
    78     2    65    1
    79    31    26    1
    80    31    17    1
    81    58    52    1
    82    58    49    1
    83    86    13    1
    84    56    54    1
    85    56    45    1
    86    80    10    1
    87    37    19   ar
    88    10     9    2
    89    26    42    1
    90    26    29    1
    91    39    21    2
    92    21    12    1
    93    85    13    1
    94    19    96    1
    95   107    49    1
    96    52    17    1
    97    13    12    1
    98    13    34    1
    99     9    79    1
   100     9     8    1
   101    17    94    1
   102    17    93    1
   103    41   104    1
   104     8    77    1
   105     8    78    1
   106    12    84    1
   107    12    83    1
   108    29    34   am
   109    29    43    2
