@<TRIPOS>MOLECULE
CQGVNMQHZQJNII-ZJZQAHHTSA-J	11152627	-4294.638862924263
 107 109 0 0 0
SMALL
MULLIKEN NwChem

@<TRIPOS>ATOM
      1 C          13.8045   -0.6683    3.1690 C.3     1  LIG1      -0.4800000000000004
      2 C           2.2199   -0.3733   -1.4382 C.3     1  LIG1      -0.46999999999999975
      3 C           2.3687    1.2489    0.4941 C.3     1  LIG1      -0.4800000000000004
      4 C          13.3873    0.7051    3.7139 C.3     1  LIG1        -0.25
      5 C          12.4448    1.4820    2.7788 C.3     1  LIG1      -0.2599999999999998
      6 C          13.0955    1.9017    1.4532 C.3     1  LIG1        -0.25
      7 C          12.1765    2.7001    0.5127 C.3     1  LIG1      -0.2599999999999998
      8 C          10.9171    1.9274    0.0496 C.3     1  LIG1      -0.3099999999999996
      9 C          11.2394    0.6101   -0.6098 C.2     1  LIG1      -0.1299999999999999
     10 C          11.1475   -0.5561    0.0316 C.2     1  LIG1      -0.09999999999999964
     11 C          11.5002   -1.9057   -0.5222 C.3     1  LIG1       -0.3899999999999997
     12 C           7.0455   -1.6263   -1.1549 C.3     1  LIG1       -0.3600000000000003
     13 C           6.6949   -0.1654   -0.7767 C.3     1  LIG1       -0.1299999999999999
     14 C           8.3206   -3.0268    1.1082 C.3     1  LIG1       -0.1299999999999999
     15 C           9.1392   -3.4706    2.3332 C.3     1  LIG1       -0.3899999999999997
     16 C          -5.5630    0.7605   -0.0798 C.3     1  LIG1       -0.08999999999999986
     17 C           1.0841    1.8602   -1.5867 C.3     1  LIG1       -0.04999999999999982
     18 C         -11.5611   -4.1789    0.6051 C.ar    1  LIG1       0.15000000000000036
     19 C          -8.0885   -1.8474    1.7742 C.ar    1  LIG1       0.21999999999999975
     20 C          -6.7858    0.3238   -0.8871 C.3     1  LIG1       0.1299999999999999
     21 C           8.5316   -1.9488   -1.1640 C.2     1  LIG1       0.5800000000000001
     22 C          10.4732   -2.9850   -0.1820 C.2     1  LIG1       0.5899999999999999
     23 C          -9.6806   -3.1802    2.1988 C.ar    1  LIG1       0.1900000000000004
     24 C          -9.1555   -0.0463   -0.8744 C.3     1  LIG1       0.08999999999999986
     25 C          -8.0948    0.9889   -0.4409 C.3     1  LIG1       0.05999999999999961
     26 C           3.5699    1.7768   -1.6751 C.3     1  LIG1       0.08000000000000007
     27 C         -10.6688   -4.0285    2.7202 C.ar    1  LIG1       0.4500000000000002
     28 C          -9.7656   -2.9001    0.8236 C.ar    1  LIG1          0.54
     29 C           4.9569    1.3504   -1.0654 C.2     1  LIG1           0.5
     30 C          -8.3986   -1.3778   -0.7198 C.3     1  LIG1       0.2599999999999998
     31 C           2.3112    1.1067   -1.0345 C.3     1  LIG1       0.08000000000000007
     32 N         -10.6736   -4.3938    4.0505 N.pl3   1  LIG1      -0.7800000000000002
     33 N           9.1099   -2.5695   -0.0607 N.am    1  LIG1      -0.4800000000000004
     34 N           5.3501    0.1142   -1.2575 N.am    1  LIG1      -0.5899999999999999
     35 N         -11.6194   -4.5219    1.9092 N.ar    1  LIG1      -0.5499999999999998
     36 N         -10.6901   -3.3884   -0.0206 N.ar    1  LIG1        -0.54
     37 N          -8.6224   -2.5115    2.7817 N.ar    1  LIG1      -0.5800000000000001
     38 N          -8.7250   -2.0414    0.5692 N.ar    1  LIG1      -0.5199999999999996
     39 O           9.2070   -1.7045   -2.1673 O.2     1  LIG1      -0.5800000000000001
     40 O          10.7907   -4.1520   -0.0345 O.2     1  LIG1      -0.5099999999999998
     41 O          -9.4789    0.1508   -2.2352 O.3     1  LIG1      -0.6899999999999995
     42 O           3.4965    3.1918   -1.5370 O.3     1  LIG1      -0.7200000000000006
     43 O           5.5752    2.3061   -0.4832 O.2     1  LIG1      -0.7200000000000006
     44 O          -6.9383    3.8433    0.2570 O.3     1  LIG1        -0.75
     45 O          -9.2709    3.2414    1.0509 O.3     1  LIG1      -0.6999999999999993
     46 O          -8.9843    4.6436   -1.1779 O.2     1  LIG1      -0.6699999999999999
     47 O          -4.6570    3.2672   -1.3370 O.3     1  LIG1      -0.6500000000000004
     48 O          -4.5196    1.4986   -3.3022 O.2     1  LIG1      -0.6600000000000001
     49 O          -1.9734   -0.4229   -1.3530 O.3     1  LIG1      -0.7100000000000009
     50 O          -0.9433    0.6892   -3.4927 O.2     1  LIG1      -0.6199999999999992
     51 O          -4.3525    0.7424   -0.8289 O.3     1  LIG1      -0.6300000000000008
     52 O          -0.1562    1.2755   -1.0883 O.3     1  LIG1      -0.5399999999999991
     53 O          -7.0226   -1.1113   -0.7264 O.3     1  LIG1      -0.5500000000000007
     54 O          -8.3051    2.1945   -1.1249 O.3     1  LIG1      -0.6400000000000006
     55 O          -2.4508    2.0377   -1.7883 O.3     1  LIG1      -0.6199999999999992
     56 P          -8.5052    3.6306   -0.1843 P.3     1  LIG1          1.08
     57 P          -4.1296    2.0050   -1.9545 P.3     1  LIG1       1.1600000000000001
     58 P          -1.3574    0.8751   -2.0813 P.3     1  LIG1       1.1999999999999993
     59 S          10.2691   -2.2172    3.0710 S.3     1  LIG1      -0.7699999999999996
     60 H          12.9225   -1.2913    2.9682 H       1  LIG1       0.16000000000000003
     61 H          14.4387   -1.1995    3.8925 H       1  LIG1          0.14
     62 H          14.3760   -0.5744    2.2368 H       1  LIG1       0.15000000000000002
     63 H           1.3620   -0.8486   -0.9488 H       1  LIG1       0.15000000000000002
     64 H           2.0749   -0.4676   -2.5227 H       1  LIG1          0.14
     65 H           3.1489   -0.8846   -1.1726 H       1  LIG1       0.15000000000000002
     66 H           1.4205    0.9379    0.9477 H       1  LIG1       0.15000000000000002
     67 H           3.1782    0.6323    0.9003 H       1  LIG1       0.15000000000000002
     68 H           2.5672    2.2927    0.7629 H       1  LIG1          0.14
     69 H          14.2819    1.3167    3.9257 H       1  LIG1          0.13
     70 H          12.8772    0.5567    4.6755 H       1  LIG1          0.13
     71 H          12.0789    2.3830    3.2963 H       1  LIG1          0.12
     72 H          11.5674    0.8541    2.5889 H       1  LIG1          0.14
     73 H          13.9971    2.4998    1.6700 H       1  LIG1          0.12
     74 H          13.4318    1.0061    0.9190 H       1  LIG1          0.14
     75 H          12.7591    3.0012   -0.3726 H       1  LIG1          0.13
     76 H          11.8612    3.6322    1.0072 H       1  LIG1          0.13
     77 H          10.2654    1.7456    0.9112 H       1  LIG1       0.15000000000000002
     78 H          10.3431    2.5677   -0.6345 H       1  LIG1          0.14
     79 H          11.5898    0.6437   -1.6448 H       1  LIG1          0.13
     80 H          10.7766   -0.5986    1.0564 H       1  LIG1       0.17000000000000004
     81 H          11.6099   -1.8741   -1.6112 H       1  LIG1       0.18999999999999995
     82 H          12.4390   -2.2712   -0.0856 H       1  LIG1       0.17000000000000004
     83 H           6.4619   -2.3138   -0.5349 H       1  LIG1       0.17000000000000004
     84 H           6.7205   -1.7629   -2.1904 H       1  LIG1       0.16000000000000003
     85 H           7.4446    0.5058   -1.2319 H       1  LIG1       0.10999999999999999
     86 H           6.8075   -0.0251    0.3138 H       1  LIG1          0.13
     87 H           7.6952   -2.1792    1.4022 H       1  LIG1       0.18000000000000005
     88 H           7.6591   -3.8528    0.7987 H       1  LIG1       0.16000000000000003
     89 H           9.6943   -4.3784    2.0701 H       1  LIG1       0.15000000000000002
     90 H           8.3784   -3.7713    3.0713 H       1  LIG1       0.15000000000000002
     91 H          -5.7372    1.7687    0.3080 H       1  LIG1       0.18000000000000005
     92 H          -5.4272    0.0740    0.7657 H       1  LIG1       0.18999999999999995
     93 H           1.0780    1.8210   -2.6803 H       1  LIG1       0.16000000000000003
     94 H           1.0993    2.9031   -1.2648 H       1  LIG1       0.17000000000000004
     95 H         -12.3446   -4.6081   -0.0187 H       1  LIG1       0.17000000000000004
     96 H          -7.2212   -1.2064    1.8329 H       1  LIG1       0.21999999999999997
     97 H          -6.6157    0.5321   -1.9482 H       1  LIG1       0.18000000000000005
     98 H         -10.0556   -0.0189   -0.2433 H       1  LIG1       0.17000000000000004
     99 H          -8.1306    1.1361    0.6457 H       1  LIG1       0.18000000000000005
    100 H           3.5723    1.5130   -2.7465 H       1  LIG1       0.10999999999999999
    101 H          -8.6836   -2.0851   -1.5059 H       1  LIG1       0.18999999999999995
    102 H         -11.5777   -4.6829    4.4001 H       1  LIG1          0.37
    103 H         -10.1531   -3.7711    4.6559 H       1  LIG1          0.37
    104 H          -9.2707    1.1022   -2.3723 H       1  LIG1       0.43000000000000005
    105 H           4.3305    3.3370   -1.0042 H       1  LIG1           0.4
    106 H          -6.2953    3.7778   -0.4888 H       1  LIG1       0.45999999999999996
    107 H          -2.8842   -0.2306   -1.0231 H       1  LIG1           0.49
@<TRIPOS>BOND
     1    50    58    2
     2    48    57    2
     3   100    26    1
     4    93    17    1
     5    64     2    1
     6   104    41    1
     7    41    24    1
     8    84    12    1
     9    39    21    2
    10    58    55    1
    11    58    49    1
    12    58    52    1
    13    57    55    1
    14    57    47    1
    15    57    51    1
    16    97    20    1
    17    26    42    1
    18    26    29    1
    19    26    31    1
    20    79     9    1
    21    81    11    1
    22    17    94    1
    23    17    52    1
    24    17    31    1
    25    42   105    1
    26   101    30    1
    27     2    65    1
    28     2    31    1
    29     2    63    1
    30    49   107    1
    31    34    29   am
    32    34    13    1
    33    85    13    1
    34    46    56    2
    35    21    12    1
    36    21    33   am
    37    12    13    1
    38    12    83    1
    39    54    25    1
    40    54    56    1
    41    29    43    2
    42    31     3    1
    43    20    53    1
    44    20    25    1
    45    20    16    1
    46    24    30    1
    47    24    25    1
    48    24    98    1
    49    51    16    1
    50    13    86    1
    51    53    30    1
    52    30    38    1
    53    78     8    1
    54     9    10    2
    55     9     8    1
    56    11    22    1
    57    11    82    1
    58    11    10    1
    59   106    44    1
    60    25    99    1
    61    75     7    1
    62    56    44    1
    63    56    45    1
    64    22    33   am
    65    22    40    2
    66    16    91    1
    67    16    92    1
    68    33    14    1
    69    36    18   ar
    70    36    28   ar
    71    95    18    1
    72    10    80    1
    73     8     7    1
    74     8    77    1
    75     3    68    1
    76     3    67    1
    77     3    66    1
    78     7    76    1
    79     7     6    1
    80    38    28   ar
    81    38    19   ar
    82    18    35   ar
    83    88    14    1
    84    28    23   ar
    85    74     6    1
    86    14    87    1
    87    14    15    1
    88     6    73    1
    89     6     5    1
    90    19    96    1
    91    19    37   ar
    92    35    27   ar
    93    89    15    1
    94    23    27   ar
    95    23    37   ar
    96    62     1    1
    97    15    59    1
    98    15    90    1
    99    72     5    1
   100    27    32    1
   101     5    71    1
   102     5     4    1
   103    60     1    1
   104     1     4    1
   105     1    61    1
   106     4    69    1
   107     4    70    1
   108    32   102    1
   109    32   103    1
