@<TRIPOS>MOLECULE
CQQNNQTXUGLUEV-UHFFFAOYSA-N	6044416	-696.2313545517247
 23 24 0 0 0
SMALL
MULLIKEN NwChem

@<TRIPOS>ATOM
      1 C           2.1212    1.2726   -0.4400 C.3     1  LIG1       -0.17999999999999972
      2 C           3.4645   -0.8386    0.2729 C.3     1  LIG1       -0.07000000000000028
      3 CA          2.1314   -0.1706    0.0342 C.2     1  LIG1       0.28000000000000025
      4 C          -0.1742   -0.2727    0.0144 C.2     1  LIG1       0.16000000000000014
      5 C          -0.2898    1.1103   -0.1064 C.3     1  LIG1       0.6600000000000001
      6 C          -1.4060   -0.9860    0.0869 C.2     1  LIG1       0.5199999999999996
      7 C          -2.7245    0.9218   -0.0842 C.cat   1  LIG1       0.6100000000000003
      8 N          -3.8023    1.6133   -0.1428 N.pl3   1  LIG1      -0.7599999999999998
      9 N           0.8311    1.8828   -0.1095 N.3     1  LIG1      -0.6600000000000001
     10 N           1.0704   -0.8688    0.1928 N.2     1  LIG1      -0.5800000000000001
     11 N          -1.5156    1.6759   -0.1509 N.pl3   1  LIG1      -0.7199999999999998
     12 N          -2.5992   -0.4461    0.0284 N.2     1  LIG1      -0.6299999999999999
     13 O           3.3305   -2.1962    0.5942 O.3     1  LIG1      -0.6799999999999997
     14 O          -1.3261   -2.3202    0.2192 O.2     1  LIG1      -0.6300000000000008
     15 H           2.3178    1.3037   -1.5273 H       1  LIG1       0.19999999999999996
     16 H           2.9183    1.8444    0.0493 H       1  LIG1       0.20999999999999996
     17 H1          4.0905   -0.7170   -0.6305 H       1  LIG1       0.17000000000000004
     18 H2          3.9896   -0.2935    1.0795 H       1  LIG1       0.17000000000000004
     19 H          -4.5998    0.9787   -0.0911 H       1  LIG1       0.30000000000000004
     20 H           0.7308    2.8737   -0.2835 H       1  LIG1          0.39
     21 H          -1.6465    2.6770   -0.2344 H       1  LIG1          0.38
     22 H           2.3664   -2.3597    0.6289 H       1  LIG1       0.42000000000000004
     23 H          -2.2498   -2.6313    0.2592 H       1  LIG1       0.44999999999999996
@<TRIPOS>BOND
     1    15     1    1
     2    17     2    1
     3     1     9    1
     4     1     3    1
     5     1    16    1
     6    20     9    1
     7    21    11    1
     8    11     5    1
     9    11     7    1
    10     8    19    1
    11     8     7    1
    12     9     5    1
    13     5     4    1
    14     7    12    2
    15     4     6    2
    16     4    10    1
    17    12     6    1
    18     3    10    2
    19     3     2    1
    20     6    14    1
    21    14    23    1
    22     2    13    1
    23     2    18    1
    24    13    22    1
