@<TRIPOS>MOLECULE
CQSLTKIXAJTQGA-FLIBITNWSA-M	6044417	-1006.4099361411636
 55 54 0 0 0
SMALL
MULLIKEN NwChem

@<TRIPOS>ATOM
      1 C           4.9277    2.9828   -5.9699 C.3     1  LIG1      -0.45999999999999996
      2 C           3.5742    3.4932   -5.4620 C.3     1  LIG1      -0.2599999999999998
      3 C           2.4311    2.4745   -5.6045 C.3     1  LIG1      -0.2699999999999996
      4 C          -1.9362   -1.2806    0.7491 C.3     1  LIG1      -0.2699999999999996
      5 C          -1.4832   -2.3560    1.7520 C.3     1  LIG1      -0.2699999999999996
      6 C          -0.9487   -0.1045    0.5538 C.3     1  LIG1      -0.3200000000000003
      7 C          -1.1508   -1.8412    3.1614 C.3     1  LIG1      -0.28000000000000025
      8 C           0.4234   -0.5672    0.1461 C.2     1  LIG1      -0.09999999999999964
      9 C          -2.2844   -1.0715    3.8605 C.3     1  LIG1      -0.2599999999999998
     10 C           2.6413    1.1419   -4.8620 C.3     1  LIG1      -0.28000000000000025
     11 C           0.9467   -0.5560   -1.0906 C.2     1  LIG1      -0.20000000000000018
     12 C          -3.6105   -1.8467    3.9858 C.3     1  LIG1      -0.2699999999999996
     13 C           2.9085    1.2675   -3.3516 C.3     1  LIG1      -0.2999999999999998
     14 C           0.2764   -0.0513   -2.3525 C.3     1  LIG1      -0.3200000000000003
     15 C          -3.4668   -3.2371    4.6307 C.3     1  LIG1       -0.33000000000000007
     16 C           1.8422    2.0328   -2.5597 C.3     1  LIG1       0.09999999999999964
     17 C           0.4092    1.4654   -2.6527 C.3     1  LIG1       0.11000000000000032
     18 C          -2.7482   -3.1141    6.0204 C.2     1  LIG1       0.5099999999999998
     19 O           2.2193    2.1727   -1.1824 O.3     1  LIG1      -0.6899999999999995
     20 O          -0.4323    2.2407   -1.8083 O.3     1  LIG1      -0.6699999999999999
     21 O          -3.4821   -2.7309    6.9640 O.co2   1  LIG1      -0.6899999999999995
     22 O          -1.5071   -3.3455    6.0110 O.co2   1  LIG1      -0.6699999999999999
     23 H           5.2893    2.1366   -5.3749 H       1  LIG1       0.15000000000000002
     24 H           5.6904    3.7685   -5.9219 H       1  LIG1       0.15000000000000002
     25 H           4.8568    2.6475   -7.0126 H       1  LIG1          0.14
     26 H           3.6717    3.7987   -4.4118 H       1  LIG1          0.14
     27 H           3.3001    4.4017   -6.0152 H       1  LIG1          0.13
     28 H           1.4976    2.9400   -5.2615 H       1  LIG1          0.14
     29 H           2.2838    2.2550   -6.6719 H       1  LIG1          0.13
     30 H          -2.8966   -0.8607    1.0735 H       1  LIG1          0.14
     31 H          -2.1138   -1.7488   -0.2301 H       1  LIG1          0.13
     32 H          -2.2787   -3.1080    1.8242 H       1  LIG1          0.14
     33 H          -0.6083   -2.8829    1.3432 H       1  LIG1          0.13
     34 H          -0.8677    0.4434    1.5013 H       1  LIG1       0.15000000000000002
     35 H          -1.3501    0.5954   -0.1852 H       1  LIG1       0.15000000000000002
     36 H          -0.8890   -2.6803    3.8165 H       1  LIG1          0.14
     37 H          -0.2593   -1.1949    3.1138 H       1  LIG1          0.13
     38 H           1.0252   -1.0044    0.9430 H       1  LIG1       0.15000000000000002
     39 H          -1.9346   -0.8273    4.8696 H       1  LIG1          0.12
     40 H          -2.4744   -0.1140    3.3477 H       1  LIG1          0.13
     41 H           1.7588    0.5104   -5.0282 H       1  LIG1       0.15000000000000002
     42 H           3.4816    0.6006   -5.3157 H       1  LIG1          0.14
     43 H           1.9433   -0.9826   -1.2205 H       1  LIG1       0.16000000000000003
     44 H          -4.2914   -1.2565    4.6135 H       1  LIG1          0.12
     45 H          -4.0870   -1.9289    2.9940 H       1  LIG1          0.13
     46 H           3.0198    0.2630   -2.9241 H       1  LIG1       0.15000000000000002
     47 H           3.8644    1.7765   -3.1781 H       1  LIG1       0.15000000000000002
     48 H          -0.7983   -0.2598   -2.3208 H       1  LIG1       0.16000000000000003
     49 H           0.6796   -0.6074   -3.2094 H       1  LIG1       0.16000000000000003
     50 H          -4.4704   -3.6630    4.7684 H       1  LIG1       0.10999999999999999
     51 H          -2.8982   -3.9078    3.9727 H       1  LIG1          0.12
     52 H           1.7925    3.0660   -2.9221 H       1  LIG1       0.15000000000000002
     53 H           0.0373    1.6260   -3.6733 H       1  LIG1       0.15000000000000002
     54 H           2.1469    1.2905   -0.7723 H       1  LIG1       0.41000000000000003
     55 H           0.1065    2.4274   -1.0178 H       1  LIG1       0.41000000000000003
@<TRIPOS>BOND
     1    25     1    1
     2    29     3    1
     3    27     2    1
     4     1    24    1
     5     1     2    1
     6     1    23    1
     7     3     2    1
     8     3    28    1
     9     3    10    1
    10     2    26    1
    11    42    10    1
    12    41    10    1
    13    10    13    1
    14    53    17    1
    15    13    47    1
    16    13    46    1
    17    13    16    1
    18    49    14    1
    19    52    16    1
    20    17    16    1
    21    17    14    1
    22    17    20    1
    23    16    19    1
    24    14    48    1
    25    14    11    1
    26    20    55    1
    27    43    11    1
    28    19    54    1
    29    11     8    2
    30    31     4    1
    31    35     6    1
    32     8     6    1
    33     8    38    1
    34     6     4    1
    35     6    34    1
    36     4    30    1
    37     4     5    1
    38    33     5    1
    39     5    32    1
    40     5     7    1
    41    45    12    1
    42    37     7    1
    43     7    36    1
    44     7     9    1
    45    40     9    1
    46     9    12    1
    47     9    39    1
    48    51    15    1
    49    12    44    1
    50    12    15    1
    51    15    50    1
    52    15    18    1
    53    22    18   ar
    54    18    21   ar
