@<TRIPOS>MOLECULE
CRFNGMNYKDXRTN-HDRJHVAISA-J	11152625	-4060.0432333560957
 91 92 0 0 0
SMALL
MULLIKEN NwChem

@<TRIPOS>ATOM
      1 C          12.7713    2.4689    1.8549 C.3     1  LIG1      -0.45999999999999996
      2 C           2.6235   -1.7676    1.3054 C.3     1  LIG1      -0.46999999999999975
      3 C           2.8556   -1.9311   -1.2118 C.3     1  LIG1      -0.4800000000000004
      4 C          11.9203    1.2544    1.4672 C.3     1  LIG1      -0.28000000000000025
      5 C          12.1929    0.7356    0.0400 C.3     1  LIG1       -0.34999999999999964
      6 C           8.7053   -0.8380    1.1863 C.3     1  LIG1       -0.33999999999999986
      7 C           7.7113   -1.2602    0.0713 C.3     1  LIG1       -0.1299999999999999
      8 C          11.8177   -2.8002    0.5646 C.3     1  LIG1       -0.09999999999999964
      9 C          12.9652   -2.1958    1.4159 C.3     1  LIG1       -0.4500000000000002
     10 C          -4.3132    0.8991    0.3292 C.3     1  LIG1       -0.05999999999999961
     11 C           2.7436    0.3152   -0.0972 C.3     1  LIG1       -0.04999999999999982
     12 C         -11.8788   -0.4397    0.0034 C.ar    1  LIG1       0.17999999999999972
     13 C          -7.6507   -1.0323    0.8676 C.ar    1  LIG1       0.21999999999999975
     14 C          -5.4678    1.5427   -0.4488 C.3     1  LIG1       0.07000000000000028
     15 C           9.9532   -1.7173    1.4089 C.2     1  LIG1       0.5099999999999998
     16 C          13.6327    0.3415   -0.1639 C.2     1  LIG1       0.2999999999999998
     17 C          -9.6752   -1.6571    0.8948 C.ar    1  LIG1       0.20000000000000018
     18 C          -7.4514    1.2538   -1.7384 C.3     1  LIG1       0.08000000000000007
     19 C          -5.9736    0.7924   -1.6950 C.3     1  LIG1       0.13999999999999968
     20 C           4.7942   -1.0657    0.1556 C.3     1  LIG1       0.05999999999999961
     21 C         -10.9264   -2.2783    1.0129 C.ar    1  LIG1       0.4500000000000002
     22 C          -9.6665   -0.3889    0.2874 C.ar    1  LIG1       0.5700000000000003
     23 C           5.5823   -2.4407    0.3023 C.2     1  LIG1       0.4400000000000004
     24 C          -7.7961    1.2845   -0.2305 C.3     1  LIG1       0.2400000000000002
     25 C           3.2418   -1.1344    0.0471 C.3     1  LIG1       0.07000000000000028
     26 N         -11.0627   -3.5174    1.6164 N.pl3   1  LIG1      -0.7699999999999996
     27 N          10.6987   -1.9269    0.3134 N.am    1  LIG1      -0.5899999999999999
     28 N           6.9008   -2.4089    0.4212 N.am    1  LIG1      -0.5999999999999996
     29 N         -12.0272   -1.6591    0.5621 N.ar    1  LIG1        -0.54
     30 N         -10.7512    0.2535   -0.1673 N.ar    1  LIG1      -0.5800000000000001
     31 N          -8.3978   -2.0496    1.2503 N.ar    1  LIG1      -0.5700000000000003
     32 N          -8.3483    0.0007    0.2831 N.ar    1  LIG1      -0.5199999999999996
     33 O          10.2176   -2.1093    2.5837 O.2     1  LIG1      -0.7100000000000009
     34 O          14.4437    1.0165   -0.7804 O.2     1  LIG1      -0.5099999999999998
     35 O          -7.5233    2.5584   -2.2474 O.3     1  LIG1      -0.7100000000000009
     36 O           5.1426   -0.2195    1.2777 O.3     1  LIG1      -0.6999999999999993
     37 O           4.8931   -3.5008    0.3779 O.2     1  LIG1      -0.6799999999999997
     38 O         -10.8003    0.9263   -3.0724 O.2     2  LIG2      -0.6699999999999999
     39 O         -10.1576    2.9940   -1.6258 O.3     2  LIG2      -0.6799999999999997
     40 O         -12.6049    2.1103   -1.5917 O.3     2  LIG2      -0.6699999999999999
     41 O          -2.8968    2.3177   -2.3692 O.2     1  LIG1      -0.6600000000000001
     42 O          -2.2191    3.0014    0.0802 O.3     1  LIG1      -0.7100000000000009
     43 O           0.1226    2.2442    0.9458 O.3     1  LIG1      -0.7100000000000009
     44 O           1.3226    2.7005   -1.3420 O.2     1  LIG1      -0.6099999999999994
     45 O          -3.1530    0.6488   -0.4513 O.3     1  LIG1      -0.5700000000000003
     46 O           1.2841    0.3318   -0.2546 O.3     1  LIG1      -0.5399999999999991
     47 O          -6.6002    1.5578    0.4653 O.3     1  LIG1      -0.5500000000000007
     48 O          -5.2874    1.0124   -2.8886 O.3     1  LIG1      -0.7300000000000004
     49 O          -0.8439    1.2289   -1.1936 O.3     1  LIG1      -0.6199999999999992
     50 P         -11.1806    1.9586   -2.0530 P.3     2  LIG2       1.0600000000000005
     51 P          -2.3272    1.9666   -1.0249 P.3     1  LIG1       1.1899999999999995
     52 P           0.5562    1.7353   -0.5142 P.3     1  LIG1       1.1799999999999997
     53 S          14.2784   -1.1926    0.5557 S.3     1  LIG1      0.009999999999999787
     54 H          12.5294    2.8190    2.8673 H       1  LIG1       0.15000000000000002
     55 H          12.6041    3.3033    1.1606 H       1  LIG1       0.15000000000000002
     56 H          13.8421    2.2319    1.8242 H       1  LIG1       0.15000000000000002
     57 H           2.9341   -1.2019    2.1915 H       1  LIG1          0.14
     58 H           1.5287   -1.7525    1.2466 H       1  LIG1          0.14
     59 H           2.9945   -2.7905    1.3932 H       1  LIG1       0.15000000000000002
     60 H           1.7675   -1.9399   -1.3420 H       1  LIG1          0.14
     61 H           3.2963   -1.4720   -2.1092 H       1  LIG1          0.14
     62 H           3.2412   -2.9475   -1.1116 H       1  LIG1       0.15000000000000002
     63 H          10.8557    1.5059    1.5259 H       1  LIG1       0.16000000000000003
     64 H          12.0656    0.4414    2.1849 H       1  LIG1       0.15000000000000002
     65 H          11.5314   -0.1398   -0.1371 H       1  LIG1       0.20999999999999996
     66 H          11.9916    1.5308   -0.6901 H       1  LIG1       0.15000000000000002
     67 H           9.0648    0.1758    0.9360 H       1  LIG1          0.13
     68 H           8.1815   -0.7665    2.1481 H       1  LIG1       0.09999999999999998
     69 H           7.1458   -0.3497   -0.2071 H       1  LIG1       0.09999999999999998
     70 H           8.3381   -1.5090   -0.8024 H       1  LIG1       0.08999999999999997
     71 H          11.5119   -3.6960    1.1407 H       1  LIG1       0.09999999999999998
     72 H          12.2444   -3.1505   -0.3898 H       1  LIG1       0.10999999999999999
     73 H          13.5941   -2.9924    1.8434 H       1  LIG1       0.18000000000000005
     74 H          12.5266   -1.6431    2.2467 H       1  LIG1       0.19999999999999996
     75 H          -4.6419   -0.0810    0.6961 H       1  LIG1       0.18999999999999995
     76 H          -4.0682    1.5296    1.1932 H       1  LIG1       0.17000000000000004
     77 H           3.1827    0.7986   -0.9766 H       1  LIG1       0.16000000000000003
     78 H           3.0054    0.8945    0.7928 H       1  LIG1       0.17000000000000004
     79 H         -12.7710    0.0494   -0.3765 H       1  LIG1       0.18000000000000005
     80 H          -6.5814   -0.9623    0.9942 H       1  LIG1       0.20999999999999996
     81 H          -5.2235    2.5734   -0.7282 H       1  LIG1       0.17000000000000004
     82 H          -8.1104    0.5603   -2.2804 H       1  LIG1       0.16000000000000003
     83 H          -5.9771   -0.2891   -1.4500 H       1  LIG1          0.14
     84 H           5.1476   -0.5600   -0.7618 H       1  LIG1          0.12
     85 H          -8.5586    2.0398   -0.0273 H       1  LIG1       0.18999999999999995
     86 H         -10.2116   -4.0666    1.6153 H       1  LIG1          0.37
     87 H         -11.8885   -4.0196    1.3153 H       1  LIG1          0.37
     88 H          -8.4784    2.8137   -2.1779 H       1  LIG1       0.44999999999999996
     89 H           5.8614   -0.7057    1.7169 H       1  LIG1       0.42000000000000004
     90 H          -4.4337    1.4824   -2.7157 H       1  LIG1       0.45999999999999996
     91 H          -0.7853    2.6744    0.8434 H       1  LIG1           0.48
@<TRIPOS>BOND
     1    38    50    2
     2    48    90    1
     3    48    19    1
     4    41    51    2
     5    82    18    1
     6    35    88    1
     7    35    18    1
     8    61     3    1
     9    50    39    1
    10    50    40    1
    11    18    19    1
    12    18    24    1
    13    19    83    1
    14    19    14    1
    15    44    52    2
    16    60     3    1
    17     3    62    1
    18     3    25    1
    19    49    51    1
    20    49    52    1
    21    51    45    1
    22    51    42    1
    23    77    11    1
    24    70     7    1
    25    34    16    2
    26    84    20    1
    27    81    14    1
    28    66     5    1
    29    52    46    1
    30    52    43    1
    31    45    10    1
    32    14    10    1
    33    14    47    1
    34    72     8    1
    35    79    12    1
    36    46    11    1
    37    24    85    1
    38    24    32    1
    39    24    47    1
    40    69     7    1
    41    30    12   ar
    42    30    22   ar
    43    16     5    1
    44    16    53    1
    45    65     5    1
    46    11    25    1
    47    11    78    1
    48    12    29   ar
    49     5     4    1
    50    25    20    1
    51    25     2    1
    52     7    28    1
    53     7     6    1
    54    20    23    1
    55    20    36    1
    56    32    22   ar
    57    32    13   ar
    58    22    17   ar
    59    23    37    2
    60    23    28   am
    61    27     8    1
    62    27    15   am
    63    10    75    1
    64    10    76    1
    65    53     9    1
    66    29    21   ar
    67     8    71    1
    68     8     9    1
    69    91    43    1
    70    13    80    1
    71    13    31   ar
    72    17    21   ar
    73    17    31   ar
    74    67     6    1
    75    21    26    1
    76    55     1    1
    77     6    15    1
    78     6    68    1
    79    58     2    1
    80    36    89    1
    81     2    59    1
    82     2    57    1
    83    87    26    1
    84    15    33    2
    85     9    73    1
    86     9    74    1
    87     4    63    1
    88     4     1    1
    89     4    64    1
    90    86    26    1
    91    56     1    1
    92     1    54    1
