@<TRIPOS>MOLECULE
CSCPPACGZOOCGX-UHFFFAOYSA-N	6044420	-193.0038560158828
 10 9 0 0 0
SMALL
MULLIKEN NwChem

@<TRIPOS>ATOM
      1 C           0.2722    0.8954   -1.5401 C.3     1  LIG1      -0.4500000000000002
      2 C          -0.0467    0.6855   -0.0507 C.3     1  LIG1      -0.3700000000000001
      3 C           0.6763   -0.5085    0.5143 C.3     1  LIG1       0.08999999999999986
      4 O          -0.1146   -1.2744    1.2194 O.3     1  LIG1         -0.5
      5 H          -0.1834    1.8201   -1.9084 H       1  LIG1       0.16000000000000003
      6 H          -0.1101    0.0647   -2.1430 H       1  LIG1       0.16000000000000003
      7 H           1.3539    0.9507   -1.6929 H       1  LIG1       0.16000000000000003
      8 H          -1.1474    0.6539    0.1185 H       1  LIG1          0.14
      9 H           0.3389    1.5457    0.5209 H       1  LIG1       0.18999999999999995
     10 H          -1.0629   -0.9633    1.2561 H       1  LIG1       0.42000000000000004
@<TRIPOS>BOND
     1     6     1    1
     2     5     1    1
     3     7     1    1
     4     1     2    1
     5     2     8    1
     6     2     3    1
     7     2     9    1
     8     3     4    1
     9     4    10    1
