@<TRIPOS>MOLECULE
CSDPVAKVEWETFG-YFKPBYRVSA-M	6044421	-438.68851404815365
 17 17 0 0 0
SMALL
MULLIKEN NwChem

@<TRIPOS>ATOM
      1 CG         -0.1634    1.8487   -0.1597 C.3     1  LYS1      -0.2599999999999998
      2 CD         -1.6320    1.4581   -0.4056 C.3     1  LYS1      -0.3099999999999996
      3 CB          0.7719    0.9002   -0.9229 C.3     1  LYS1      -0.29000000000000004
      4 CE         -1.8213   -0.0165   -0.7079 C.2     1  LYS1       0.04999999999999982
      5 CA          0.4499   -0.5658   -0.5676 C.3     1  LYS1       -0.05999999999999961
      6 C           0.8287   -0.7993    0.9809 C.2     1  LYS1       0.5199999999999996
      7 N          -0.9330   -0.9187   -0.8388 N.2     1  LYS1      -0.41000000000000014
      8 OXT        -0.0415   -0.4268    1.8036 O.co2   1  LYS1      -0.6500000000000004
      9 O           1.9829   -1.2478    1.1529 O.co2   1  LYS1      -0.6699999999999999
     10 HG1         0.0473    1.7431    0.9064 H       1  LYS1          0.14
     11 HG2         0.0087    2.8962   -0.4487 H       1  LYS1          0.13
     12 HD1        -2.2509    1.7205    0.4642 H       1  LYS1       0.16000000000000003
     13 HD2        -2.0574    2.0226   -1.2545 H       1  LYS1       0.16000000000000003
     14 HB1         0.6494    1.0501   -2.0093 H       1  LYS1          0.13
     15 HB2         1.8211    1.1059   -0.6767 H       1  LYS1          0.13
     16 HE         -2.8664   -0.3203   -0.8716 H       1  LYS1          0.13
     17 HA          1.0901   -1.2375   -1.1478 H       1  LYS1       0.09999999999999998
@<TRIPOS>BOND
     1    14     3    1
     2    13     2    1
     3    17     5    1
     4     3    15    1
     5     3     5    1
     6     3     1    1
     7    16     4    1
     8     7     4    2
     9     7     5    1
    10     4     2    1
    11     5     6    1
    12    11     1    1
    13     2     1    1
    14     2    12    1
    15     1    10    1
    16     6     9   ar
    17     6     8   ar
