@<TRIPOS>MOLECULE
CTPQAXVNYGZUAJ-KXXVROSKSA-D	11152623	-3520.759171788241
 39 39 0 0 0
SMALL
MULLIKEN NwChem

@<TRIPOS>ATOM
      1 C           0.5405   -1.5560   -0.2671 C.3     1  LIG1       0.09999999999999964
      2 C           1.4446   -0.6012    0.5989 C.3     1  LIG1       0.1200000000000001
      3 C          -1.0315   -1.4061   -0.1143 C.3     1  LIG1       0.09999999999999964
      4 C           1.2392    0.9599    0.1881 C.3     1  LIG1       0.1299999999999999
      5 C          -1.5319    0.1379   -0.0467 C.3     1  LIG1       0.1200000000000001
      6 C          -0.3377    1.2678   -0.3760 C.3     1  LIG1       0.1200000000000001
      7 O           0.8620   -1.4428   -1.6606 O.3     1  LIG1      -0.7100000000000009
      8 O           5.2925   -1.9473    0.8557 O.3     1  LIG1      -0.8200000000000003
      9 O           3.4474   -3.7123    0.5923 O.2     1  LIG1      -0.8100000000000005
     10 O           3.6299   -2.3864    2.8004 O.3     1  LIG1      -0.8000000000000007
     11 O          -1.2883   -4.3518   -2.7150 O.2     1  LIG1      -0.8100000000000005
     12 O          -3.6837   -3.7455   -2.0388 O.3     1  LIG1      -0.8000000000000007
     13 O          -2.0682   -4.7065   -0.2592 O.3     1  LIG1      -0.8000000000000007
     14 O           1.9433    4.5024    1.7457 O.3     1  LIG1      -0.8000000000000007
     15 O           3.8705    3.2537    0.5544 O.2     1  LIG1      -0.8000000000000007
     16 O           3.3462    2.8207    3.0614 O.3     1  LIG1      -0.8100000000000005
     17 O          -3.7974    1.9171    2.7434 O.3     1  LIG1      -0.8100000000000005
     18 O          -4.8734    0.6488    0.7660 O.2     1  LIG1      -0.8000000000000007
     19 O          -4.0502   -0.6299    2.8710 O.3     1  LIG1      -0.8100000000000005
     20 O          -1.2250    4.1276   -2.2069 O.3     1  LIG1      -0.8100000000000005
     21 O           0.4751    3.0741   -3.8583 O.2     1  LIG1      -0.8100000000000005
     22 O          -1.9536    2.2578   -3.8351 O.3     1  LIG1      -0.8100000000000005
     23 O           2.8585   -1.0468    0.5399 O.3     1  LIG1      -0.6799999999999997
     24 O          -1.6695   -2.1691   -1.2326 O.3     1  LIG1      -0.6899999999999995
     25 O           1.6078    1.8508    1.2943 O.3     1  LIG1      -0.6799999999999997
     26 O          -2.1741    0.4033    1.2562 O.3     1  LIG1      -0.6799999999999997
     27 O          -0.3108    1.5501   -1.8185 O.3     1  LIG1      -0.6799999999999997
     28 P           3.8330   -2.3557    1.2546 P.3     1  LIG1       0.8800000000000008
     29 P          -2.2040   -3.8593   -1.5516 P.3     1  LIG1       0.9000000000000004
     30 P           2.7745    3.1849    1.6529 P.3     1  LIG1       0.8699999999999992
     31 P          -3.8355    0.5904    1.9185 P.3     1  LIG1       0.8800000000000008
     32 P          -0.7943    2.8478   -2.9725 P.3     1  LIG1       0.8900000000000006
     33 H           0.7984   -2.5761    0.0656 H       1  LIG1       0.10999999999999999
     34 H           1.0942   -0.6833    1.6396 H       1  LIG1          0.12
     35 H          -1.3385   -1.8568    0.8354 H       1  LIG1          0.14
     36 H           1.8703    1.1555   -0.6839 H       1  LIG1          0.12
     37 H          -2.2558    0.2795   -0.8551 H       1  LIG1          0.13
     38 H          -0.6453    2.1591    0.1790 H       1  LIG1          0.12
     39 H           0.0163   -1.7305   -2.0658 H       1  LIG1       0.41000000000000003
@<TRIPOS>BOND
     1    21    32    2
     2    22    32    1
     3    32    20    1
     4    32    27    1
     5    11    29    2
     6    39     7    1
     7    12    29    1
     8    27     6    1
     9     7     1    1
    10    29    24    1
    11    29    13    1
    12    24     3    1
    13    37     5    1
    14    36     4    1
    15     6     5    1
    16     6    38    1
    17     6     4    1
    18     1     3    1
    19     1    33    1
    20     1     2    1
    21     3     5    1
    22     3    35    1
    23     5    26    1
    24     4     2    1
    25     4    25    1
    26    23     2    1
    27    23    28    1
    28    15    30    2
    29     9    28    2
    30     2    34    1
    31    18    31    2
    32     8    28    1
    33    28    10    1
    34    26    31    1
    35    25    30    1
    36    30    14    1
    37    30    16    1
    38    31    17    1
    39    31    19    1
