@<TRIPOS>MOLECULE
CTPQAXVNYGZUAJ-QWBQGLJISA-D	11152624	-3520.783977395386
 39 39 0 0 0
SMALL
MULLIKEN NwChem

@<TRIPOS>ATOM
      1 C          -0.0045   -1.5032   -0.6284 C.3     1  LIG1       0.11000000000000032
      2 C           1.0902   -0.4924   -1.2363 C.3     1  LIG1       0.1299999999999999
      3 C          -1.2720   -1.0437    0.2474 C.3     1  LIG1       0.11000000000000032
      4 C           1.3345    0.7053   -0.1628 C.3     1  LIG1       0.1200000000000001
      5 C          -0.8502    0.1221    1.2590 C.3     1  LIG1       0.1299999999999999
      6 C          -0.1654    1.3029    0.2868 C.3     1  LIG1       0.09999999999999964
      7 O          -0.5041   -2.2698   -1.7241 O.3     1  LIG1      -0.7400000000000002
      8 O           2.7805   -3.7037   -2.6719 O.3     1  LIG1      -0.8100000000000005
      9 O           4.4736   -1.8275   -3.0223 O.3     1  LIG1      -0.8100000000000005
     10 O           2.2365   -1.7579   -4.3122 O.2     1  LIG1      -0.8100000000000005
     11 O          -2.7903   -4.5857    1.6301 O.3     1  LIG1      -0.8000000000000007
     12 O          -4.3563   -3.0923    0.2141 O.3     1  LIG1      -0.7899999999999991
     13 O          -2.3189   -4.2322   -0.8798 O.2     1  LIG1      -0.8000000000000007
     14 O           3.3403    3.6904    1.0442 O.3     1  LIG1      -0.8100000000000005
     15 O           4.3983    1.3401    1.1815 O.3     1  LIG1      -0.8100000000000005
     16 O           4.6820    2.8077   -0.9491 O.2     1  LIG1      -0.8100000000000005
     17 O          -1.7016    2.1759    4.3905 O.3     1  LIG1      -0.8000000000000007
     18 O          -0.8984   -0.2723    4.6025 O.3     1  LIG1      -0.8000000000000007
     19 O          -3.4239    0.2861    4.3277 O.2     1  LIG1      -0.8100000000000005
     20 O          -1.2406    3.5812   -2.7775 O.2     1  LIG1      -0.8000000000000007
     21 O          -3.3339    2.9428   -1.4506 O.3     1  LIG1      -0.8000000000000007
     22 O          -1.5237    4.4300   -0.3477 O.3     1  LIG1      -0.7899999999999991
     23 O           2.3040   -1.2601   -1.5947 O.3     1  LIG1      -0.6799999999999997
     24 O          -1.8313   -2.2804    0.8890 O.3     1  LIG1      -0.6799999999999997
     25 O           2.3031    1.7247   -0.5458 O.3     1  LIG1      -0.6799999999999997
     26 O          -1.8736    0.5832    2.1920 O.3     1  LIG1      -0.6799999999999997
     27 O          -1.0072    1.7494   -0.8147 O.3     1  LIG1      -0.6699999999999999
     28 P           2.9496   -2.1833   -2.9950 P.3     1  LIG1       0.8599999999999994
     29 P          -2.8952   -3.5891    0.4292 P.3     1  LIG1       0.8900000000000006
     30 P           3.7630    2.4137    0.2543 P.3     1  LIG1       0.8900000000000006
     31 P          -1.9515    0.6887    3.9849 P.3     1  LIG1       0.8599999999999994
     32 P          -1.8156    3.2897   -1.3562 P.3     1  LIG1       0.8699999999999992
     33 H           0.5792   -2.1499    0.0538 H       1  LIG1       0.10999999999999999
     34 H           0.6605   -0.0477   -2.1404 H       1  LIG1          0.12
     35 H          -2.0201   -0.6304   -0.4354 H       1  LIG1          0.13
     36 H           1.7193    0.2233    0.7484 H       1  LIG1       0.10999999999999999
     37 H          -0.0165   -0.2599    1.8653 H       1  LIG1          0.12
     38 H           0.0509    2.1477    0.9520 H       1  LIG1          0.12
     39 H          -1.0904   -2.9740   -1.3465 H       1  LIG1       0.42000000000000004
@<TRIPOS>BOND
     1    10    28    2
     2     9    28    1
     3    28     8    1
     4    28    23    1
     5    20    32    2
     6    34     2    1
     7     7    39    1
     8     7     1    1
     9    23     2    1
    10    21    32    1
    11    32    27    1
    12    32    22    1
    13     2     1    1
    14     2     4    1
    15    16    30    2
    16    13    29    2
    17    27     6    1
    18     1    33    1
    19     1     3    1
    20    25     4    1
    21    25    30    1
    22    35     3    1
    23     4     6    1
    24     4    36    1
    25    12    29    1
    26     3    24    1
    27     3     5    1
    28    30    14    1
    29    30    15    1
    30     6    38    1
    31     6     5    1
    32    29    24    1
    33    29    11    1
    34     5    37    1
    35     5    26    1
    36    26    31    1
    37    31    19    2
    38    31    17    1
    39    31    18    1
