@<TRIPOS>MOLECULE
CUNFRFHBHMFVPH-TYASJMOZSA-J	11152622	-3160.7546201708124
 60 63 0 0 0
SMALL
MULLIKEN NwChem

@<TRIPOS>ATOM
      1 C           2.6123    0.5519    1.8354 C.3     1  LIG1       -0.05999999999999961
      2 C          -2.9814    0.0165    0.5649 C.3     1  LIG1       -0.07000000000000028
      3 C           8.4807    0.3349   -3.0159 C.ar    1  LIG1       0.15000000000000036
      4 C           6.2540    0.7712    0.7021 C.ar    1  LIG1       0.21999999999999975
      5 C           2.6449    0.3348    0.3237 C.3     1  LIG1       0.09999999999999964
      6 C          -4.5044   -0.0418    0.4318 C.3     1  LIG1       0.09999999999999964
      7 C           8.0669    0.6054   -0.3965 C.ar    1  LIG1       0.20000000000000018
      8 C           3.1091   -1.0679   -0.1241 C.3     1  LIG1       0.08999999999999986
      9 C          -5.0019   -1.1688   -0.5055 C.3     1  LIG1       0.11000000000000032
     10 C           3.9706   -0.7641   -1.3915 C.3     1  LIG1       0.08999999999999986
     11 C          -6.3488   -0.6063   -1.0415 C.3     1  LIG1       0.08999999999999986
     12 C           9.3746    0.4737   -0.9002 C.ar    1  LIG1       0.41999999999999993
     13 C           7.0302    0.5724   -1.3483 C.ar    1  LIG1          0.54
     14 C           4.4749    0.6655   -1.1494 C.3     1  LIG1       0.2599999999999998
     15 C          -6.4128    0.8374   -0.4473 C.3     1  LIG1       0.3600000000000003
     16 N          10.4883    0.5103   -0.0542 N.pl3   1  LIG1      -0.7699999999999996
     17 N           9.5693    0.3290   -2.2235 N.ar    1  LIG1      -0.5300000000000002
     18 N           7.1857    0.4498   -2.6812 N.ar    1  LIG1        -0.54
     19 N           7.5674    0.7293    0.8826 N.ar    1  LIG1      -0.5800000000000001
     20 N           5.8708    0.6822   -0.6192 N.ar    1  LIG1      -0.5199999999999996
     21 O           2.0978   -1.9518   -0.5069 O.3     1  LIG1      -0.7400000000000002
     22 O          -5.0884   -2.4311    0.1429 O.3     1  LIG1      -0.6999999999999993
     23 O           3.1287   -0.7824   -2.5184 O.3     1  LIG1      -0.6999999999999993
     24 O          -7.4783   -1.3724   -0.7048 O.3     1  LIG1      -0.7400000000000002
     25 O          -9.1371    0.4785   -1.6091 O.3     1  LIG1      -0.7899999999999991
     26 O          -8.8702    2.8837   -2.5349 O.2     1  LIG1        -0.75
     27 O          -9.0659    2.4744    0.0278 O.3     1  LIG1      -0.7799999999999994
     28 O          -0.0106    1.5211    2.4499 O.2     1  LIG1      -0.7200000000000006
     29 O           0.4576    0.1330    4.6394 O.3     1  LIG1      -0.6699999999999999
     30 O          -0.9912   -3.2098    1.4200 O.3     1  LIG1      -0.6600000000000001
     31 O          -0.1720   -1.0688    0.1329 O.2     1  LIG1      -0.7400000000000002
     32 O           1.7590   -0.3711    2.4550 O.3     1  LIG1      -0.6099999999999994
     33 O          -2.5830   -1.2957    1.0068 O.3     1  LIG1      -0.5800000000000001
     34 O           3.6319    1.2794   -0.2254 O.3     1  LIG1      -0.5399999999999991
     35 O          -5.0277    1.1565   -0.1173 O.3     1  LIG1      -0.5700000000000003
     36 O          -6.9161    1.7912   -1.2960 O.3     1  LIG1      -0.6400000000000006
     37 O          -0.6836   -1.0014    2.6822 O.3     1  LIG1      -0.6400000000000006
     38 P          -8.6714    1.9399   -1.3517 P.3     1  LIG1       0.9199999999999999
     39 P           0.3192    0.2297    3.1462 P.3     1  LIG1       1.1099999999999994
     40 P          -1.0036   -1.7262    1.2387 P.3     1  LIG1       1.1799999999999997
     41 H           2.3110    1.5865    2.0329 H       1  LIG1       0.16000000000000003
     42 H           3.6367    0.4026    2.2285 H       1  LIG1       0.16000000000000003
     43 H          -2.5228    0.2369   -0.4069 H       1  LIG1       0.16000000000000003
     44 H          -2.6495    0.7750    1.2842 H       1  LIG1       0.17000000000000004
     45 H           8.6828    0.2224   -4.0814 H       1  LIG1       0.17000000000000004
     46 H           5.5108    0.8779    1.4775 H       1  LIG1       0.20999999999999996
     47 H           1.6621    0.5615   -0.0966 H       1  LIG1       0.16000000000000003
     48 H          -4.9366   -0.2428    1.4306 H       1  LIG1          0.14
     49 H           3.7478   -1.5056    0.6625 H       1  LIG1       0.15000000000000002
     50 H          -4.2906   -1.2321   -1.3487 H       1  LIG1          0.14
     51 H           4.8156   -1.4616   -1.5137 H       1  LIG1       0.16000000000000003
     52 H          -6.2694   -0.4739   -2.1349 H       1  LIG1          0.12
     53 H           4.5110    1.2224   -2.0919 H       1  LIG1       0.18999999999999995
     54 H          -6.9858    0.7895    0.4981 H       1  LIG1       0.09999999999999998
     55 H          11.2623   -0.0305   -0.4271 H       1  LIG1          0.36
     56 H          10.2458    0.2390    0.8941 H       1  LIG1          0.37
     57 H           1.1620   -1.6410   -0.1568 H       1  LIG1          0.48
     58 H          -4.2076   -2.5284    0.5525 H       1  LIG1       0.43000000000000005
     59 H           2.3547   -1.2955   -2.1666 H       1  LIG1       0.42000000000000004
     60 H          -8.2305   -0.7613   -0.9984 H       1  LIG1       0.43000000000000005
@<TRIPOS>BOND
     1    45     3    1
     2     3    18   ar
     3     3    17   ar
     4    18    13   ar
     5    26    38    2
     6    23    59    1
     7    23    10    1
     8    17    12   ar
     9    52    11    1
    10    53    14    1
    11    25    38    1
    12    51    10    1
    13    10    14    1
    14    10     8    1
    15    38    36    1
    16    38    27    1
    17    50     9    1
    18    13    20   ar
    19    13     7   ar
    20    36    15    1
    21    14    20    1
    22    14    34    1
    23    11    24    1
    24    11     9    1
    25    11    15    1
    26    60    24    1
    27    12     7   ar
    28    12    16    1
    29    20     4   ar
    30    21    57    1
    31    21     8    1
    32     9    22    1
    33     9     6    1
    34    15    35    1
    35    15    54    1
    36    55    16    1
    37    43     2    1
    38     7    19   ar
    39    34     5    1
    40     8     5    1
    41     8    49    1
    42    35     6    1
    43    47     5    1
    44    16    56    1
    45    31    40    2
    46    22    58    1
    47     5     1    1
    48     6     2    1
    49     6    48    1
    50     2    33    1
    51     2    44    1
    52     4    19   ar
    53     4    46    1
    54    33    40    1
    55    40    30    1
    56    40    37    1
    57     1    41    1
    58     1    42    1
    59     1    32    1
    60    28    39    2
    61    32    39    1
    62    37    39    1
    63    39    29    1
