@<TRIPOS>MOLECULE
CUOKHACJLGPRHD-JJYYJPOSSA-N	6044425	-571.3475949167812
 18 18 0 0 0
SMALL
MULLIKEN NwChem

@<TRIPOS>ATOM
      1 C          -0.0837   -2.2551   -0.3081 C.3     1  LIG1       -0.04999999999999982
      2 C          -0.5283   -0.8277   -0.0423 C.3     1  LIG1       0.08999999999999986
      3 C           0.2182    0.2233   -0.8953 C.3     1  LIG1       0.11000000000000032
      4 C           0.1502    1.4404    0.0141 C.3     1  LIG1       0.040000000000000036
      5 C           0.1881    0.7967    1.4035 C.2     1  LIG1       0.6200000000000001
      6 O          -0.2971   -2.4604   -1.7060 O.3     1  LIG1      -0.6600000000000001
      7 O          -0.3895    0.4415   -2.1441 O.3     1  LIG1      -0.6799999999999997
      8 O           1.2014    2.3558   -0.1582 O.3     1  LIG1      -0.6600000000000001
      9 O           0.5601    1.3249    2.4195 O.2     1  LIG1      -0.5099999999999998
     10 O          -0.2390   -0.4924    1.3359 O.3     1  LIG1      -0.4800000000000004
     11 H          -0.6630   -2.9615    0.3029 H       1  LIG1       0.16000000000000003
     12 H           0.9783   -2.3521   -0.0371 H       1  LIG1       0.16000000000000003
     13 H          -1.6057   -0.7251   -0.2186 H       1  LIG1       0.18000000000000005
     14 H           1.2770   -0.0684   -0.9936 H       1  LIG1       0.16000000000000003
     15 H          -0.8389    1.9148   -0.1199 H       1  LIG1       0.19999999999999996
     16 H           0.0366   -3.3367   -1.9472 H       1  LIG1       0.44999999999999996
     17 H          -0.3866   -0.4203   -2.5960 H       1  LIG1       0.43000000000000005
     18 H           1.3584    2.7579    0.7151 H       1  LIG1       0.43000000000000005
@<TRIPOS>BOND
     1    17     7    1
     2     7     3    1
     3    16     6    1
     4     6     1    1
     5    14     3    1
     6     3     2    1
     7     3     4    1
     8     1     2    1
     9     1    12    1
    10     1    11    1
    11    13     2    1
    12     8     4    1
    13     8    18    1
    14    15     4    1
    15     2    10    1
    16     4     5    1
    17    10     5    1
    18     5     9    2
