@<TRIPOS>MOLECULE
CURLTUGMZLYLDI-UHFFFAOYSA-N	6044426	-188.58794269178895
 3 2 0 0 0
SMALL
MULLIKEN NwChem

@<TRIPOS>ATOM
      1 C          -0.0000    0.0000    0.0000 C.1     1  LIG1       0.7599999999999998
      2 O          -1.1693   -0.0000   -0.0000 O.2     1  LIG1      -0.3800000000000008
      3 O           1.1693   -0.0000   -0.0000 O.2     1  LIG1      -0.3800000000000008
@<TRIPOS>BOND
     1     1     2    2
     2     1     3    2
