@<TRIPOS>MOLECULE
CVZKYDYRJQYYDJ-MBNYWOFBSA-M	11152621	-1820.768830786852
 48 51 0 0 0
SMALL
MULLIKEN NwChem

@<TRIPOS>ATOM
      1 C          -4.2166    3.2899   -2.4089 C.3     1  LIG1      -0.5499999999999998
      2 C          -2.7451    4.1754   -0.0068 C.3     1  LIG1      -0.5499999999999998
      3 C          -3.5449    0.9317   -1.8132 C.ar    1  LIG1        -0.25
      4 C          -2.1634    1.7703    0.4345 C.ar    1  LIG1      -0.33999999999999986
      5 C          -0.8432   -0.2913    2.1452 C.3     1  LIG1       -0.21999999999999975
      6 C           3.5745    1.0407    1.7919 C.3     1  LIG1       -0.08000000000000007
      7 C          -3.5138    2.2912   -1.5209 C.ar    1  LIG1      0.1299999999999999
      8 C          -2.8095    2.7119   -0.3714 C.ar    1  LIG1      0.15000000000000036
      9 C          -2.8974   -0.0306   -1.0246 C.ar    1  LIG1       0.2599999999999998
     10 C          -2.1813    0.3954    0.1266 C.ar    1  LIG1       0.3799999999999999
     11 C           0.7156   -0.3165    2.1405 C.3     1  LIG1       0.1200000000000001
     12 C           2.8503    0.0685    0.8301 C.3     1  LIG1       0.07000000000000028
     13 C          -2.3467   -2.2432   -0.7159 C.ar    1  LIG1       0.20000000000000018
     14 C           1.3225    0.1659    0.8042 C.3     1  LIG1       0.08999999999999986
     15 C          -1.4649   -1.8913    0.4006 C.ar    1  LIG1       0.5999999999999996
     16 C          -2.4403   -3.7359   -1.0355 C.ar    1  LIG1       0.5199999999999996
     17 C          -0.6300   -4.1058    0.4466 C.ar    1  LIG1       0.6200000000000001
     18 N          -3.0120   -1.3615   -1.3949 N.ar    1  LIG1      -0.5899999999999999
     19 N          -0.6654   -2.7312    0.9611 N.ar    1  LIG1      -0.6799999999999997
     20 N          -1.5328   -4.5540   -0.4571 N.ar    1  LIG1      -0.6399999999999997
     21 N          -1.5179   -0.5761    0.8723 N.ar    1  LIG1      -0.5899999999999999
     22 O           1.2411   -1.5660    2.5092 O.3     1  LIG1      -0.6899999999999995
     23 O           0.9338    1.5329    0.5358 O.3     1  LIG1      -0.6899999999999995
     24 O          -3.3320   -4.0934   -1.8112 O.2     1  LIG1      -0.6199999999999992
     25 O           0.2782   -4.7847    0.9275 O.2     1  LIG1      -0.6099999999999994
     26 O           2.7253    2.7623   -1.1448 O.3     1  LIG1      -0.6799999999999997
     27 O           5.2108    2.0953   -1.3019 O.2     1  LIG1      -0.5800000000000001
     28 O           3.9431    2.2021    1.0321 O.3     1  LIG1      -0.5600000000000005
     29 O           3.4007    0.3605   -0.4725 O.3     1  LIG1      -0.5700000000000003
     30 P           3.9465    1.8972   -0.5749 P.3     1  LIG1       1.2100000000000009
     31 H          -3.5153    4.0209   -2.8333 H       1  LIG1       0.18000000000000005
     32 H          -4.7190    2.7890   -3.2417 H       1  LIG1       0.17000000000000004
     33 H          -4.9737    3.8635   -1.8575 H       1  LIG1       0.18000000000000005
     34 H          -3.7470    4.5896    0.1668 H       1  LIG1       0.18000000000000005
     35 H          -2.1530    4.3394    0.8989 H       1  LIG1       0.18000000000000005
     36 H          -2.2957    4.7699   -0.8128 H       1  LIG1       0.18000000000000005
     37 H          -4.0820    0.5598   -2.6812 H       1  LIG1       0.16000000000000003
     38 H          -1.6417    2.1312    1.3144 H       1  LIG1       0.18999999999999995
     39 H          -1.2041    0.6713    2.5037 H       1  LIG1       0.20999999999999996
     40 H          -1.1583   -1.0542    2.8635 H       1  LIG1       0.19999999999999996
     41 H           2.9405    1.3652    2.6191 H       1  LIG1       0.19999999999999996
     42 H           4.4809    0.5765    2.1958 H       1  LIG1       0.19999999999999996
     43 H           1.0231    0.3976    2.9175 H       1  LIG1       0.17000000000000004
     44 H           3.0937   -0.9662    1.0706 H       1  LIG1       0.19999999999999996
     45 H           0.9802   -0.4867   -0.0077 H       1  LIG1       0.18000000000000005
     46 H           0.7008   -2.2427    2.0087 H       1  LIG1       0.42000000000000004
     47 H           0.0418    1.5255    0.1470 H       1  LIG1       0.44999999999999996
     48 H           1.9273    2.4919   -0.6261 H       1  LIG1           0.47
@<TRIPOS>BOND
     1    32     1    1
     2    31     1    1
     3    37     3    1
     4     1    33    1
     5     1     7    1
     6     3     7   ar
     7     3     9   ar
     8    24    16    2
     9     7     8   ar
    10    18     9   ar
    11    18    13   ar
    12    27    30    2
    13    26    48    1
    14    26    30    1
    15    16    13   ar
    16    16    20   ar
    17     9    10   ar
    18    36     2    1
    19    13    15   ar
    20    30    29    1
    21    30    28    1
    22    29    12    1
    23    20    17   ar
    24     8     2    1
    25     8     4   ar
    26    45    14    1
    27     2    34    1
    28     2    35    1
    29    10     4   ar
    30    10    21   ar
    31    47    23    1
    32    15    21   ar
    33    15    19   ar
    34     4    38    1
    35    17    25    2
    36    17    19   ar
    37    23    14    1
    38    14    12    1
    39    14    11    1
    40    12    44    1
    41    12     6    1
    42    21     5    1
    43    28     6    1
    44     6    42    1
    45     6    41    1
    46    46    22    1
    47    11     5    1
    48    11    22    1
    49    11    43    1
    50     5    39    1
    51     5    40    1
