@<TRIPOS>MOLECULE
CWNDERHTHMWBSI-YFKPBYRVSA-M	6044428	-1041.8615492608908
 25 25 0 0 0
SMALL
MULLIKEN NwChem

@<TRIPOS>ATOM
      1 C           0.0210   -1.6208    0.9191 C.3     1  LIG1       -0.3600000000000003
      2 C          -2.0885   -2.1690   -0.5215 C.ar    1  LIG1       -0.1200000000000001
      3 C           0.6739    0.5591    2.1085 C.3     1  LIG1       -0.05999999999999961
      4 C          -1.8937   -0.7174   -2.0646 C.ar    1  LIG1       0.16000000000000014
      5 C          -0.2044   -0.7004    2.1601 C.3     1  LIG1       0.03000000000000025
      6 C          -0.9419   -1.4579   -0.2229 C.ar    1  LIG1       0.29000000000000004
      7 N          -1.6418   -0.4571    2.3534 N.3     1  LIG1      -0.7800000000000002
      8 N          -2.6836   -1.7071   -1.6742 N.ar    1  LIG1      -0.5099999999999998
      9 N          -0.8383   -0.5242   -1.2333 N.ar    1  LIG1      -0.6299999999999999
     10 O           1.0574    1.4550   -1.5231 O.2     1  LIG1      -0.7100000000000009
     11 O           2.1422    3.0821    0.1144 O.3     1  LIG1      -0.7100000000000009
     12 O           2.8717    0.6154    0.2337 O.3     1  LIG1      -0.6899999999999995
     13 O           0.4635    1.2868    0.9078 O.3     1  LIG1      -0.5899999999999999
     14 P           1.7303    1.4981   -0.1641 P.3     1  LIG1       1.1099999999999994
     15 H          -0.0717   -2.6600    1.2543 H       1  LIG1       0.17000000000000004
     16 H           1.0519   -1.4798    0.5727 H       1  LIG1       0.16000000000000003
     17 H          -2.5109   -2.9892    0.0469 H       1  LIG1          0.14
     18 H           0.4195    1.2092    2.9635 H       1  LIG1          0.14
     19 H           1.7288    0.2749    2.1965 H       1  LIG1       0.15000000000000002
     20 H          -2.0408   -0.1072   -2.9469 H       1  LIG1       0.17000000000000004
     21 H           0.1430   -1.2597    3.0445 H       1  LIG1          0.14
     22 H          -1.7533    0.2630    3.0687 H       1  LIG1       0.31999999999999995
     23 H          -2.0073   -0.0512    1.4917 H       1  LIG1       0.31999999999999995
     24 H          -0.1076    0.2138   -1.3403 H       1  LIG1       0.42000000000000004
     25 H           1.5928    3.6015   -0.4931 H       1  LIG1       0.44999999999999996
@<TRIPOS>BOND
     1    20     4    1
     2     4     8   ar
     3     4     9   ar
     4     8     2   ar
     5    10    14    2
     6    24     9    1
     7     9     6   ar
     8     2     6   ar
     9     2    17    1
    10    25    11    1
    11     6     1    1
    12    14    11    1
    13    14    12    1
    14    14    13    1
    15    16     1    1
    16    13     3    1
    17     1    15    1
    18     1     5    1
    19    23     7    1
    20     3     5    1
    21     3    19    1
    22     3    18    1
    23     5     7    1
    24     5    21    1
    25     7    22    1
