@<TRIPOS>MOLECULE
CZFRMASEEPTBAQ-MYCGWMCTSA-N	6044430	-2059.0166545497523
 122 122 0 0 0
SMALL
MULLIKEN NwChem

@<TRIPOS>ATOM
      1 C           6.6757   -0.5763   -0.1938 C.3     1  LIG1            -0.54
      2 C           7.0062   -1.6551   -2.4697 C.3     1  LIG1      -0.5300000000000002
      3 C           3.5040   -5.4458    1.0590 C.3     1  LIG1        -0.54
      4 C           2.4409   -3.1093   -4.7899 C.3     1  LIG1        -0.54
      5 C           4.0431    1.9276   -1.6413 C.3     1  LIG1        -0.54
      6 C           1.3649   -1.6193    1.2249 C.3     1  LIG1        -0.54
      7 C          -1.6822   -1.5958   -2.8737 C.3     1  LIG1      -0.5499999999999998
      8 C          -0.1442    3.7746   -2.7459 C.3     1  LIG1        -0.54
      9 C          -0.0482    3.7136    3.3510 C.3     1  LIG1        -0.54
     10 C          -7.5978    2.7455    3.4198 C.3     1  LIG1       -0.23000000000000043
     11 C           6.2035   -3.3916    0.9540 C.3     1  LIG1      -0.3099999999999996
     12 C           2.6116   -4.5519   -1.8260 C.3     1  LIG1      -0.3200000000000003
     13 C           2.7467   -0.1827   -3.7590 C.3     1  LIG1      -0.33000000000000007
     14 C           2.0770    1.3649    0.6812 C.3     1  LIG1      -0.33000000000000007
     15 C          -1.6086   -1.8844    0.3121 C.3     1  LIG1      -0.33000000000000007
     16 C          -2.3480    1.3388   -3.1905 C.3     1  LIG1      -0.3099999999999996
     17 C          -0.7224    4.5202    0.0990 C.3     1  LIG1      -0.3099999999999996
     18 C           6.5730   -3.0749   -0.4753 C.2     1  LIG1      -0.17999999999999972
     19 C           4.6864   -3.1916    1.2200 C.3     1  LIG1      -0.33000000000000007
     20 C           3.4296   -3.7699   -0.8357 C.2     1  LIG1      -0.16000000000000014
     21 C           1.5017   -3.6877   -2.4837 C.3     1  LIG1      -0.34999999999999964
     22 C           2.1910   -1.3584   -2.9940 C.2     1  LIG1      -0.17999999999999972
     23 C           2.1912    1.1686   -3.2385 C.3     1  LIG1      -0.34999999999999964
     24 C           1.7668    1.2757   -0.7953 C.2     1  LIG1      -0.16999999999999993
     25 C           0.8915    0.8810    1.5472 C.3     1  LIG1      -0.3600000000000003
     26 C          -0.9050   -0.6307    0.7732 C.2     1  LIG1      -0.1900000000000004
     27 C          -2.8298   -1.5378   -0.5699 C.3     1  LIG1      -0.34999999999999964
     28 C          -2.7009    0.5052   -1.9812 C.2     1  LIG1      -0.1900000000000004
     29 C          -2.5373    2.8546   -2.9580 C.3     1  LIG1      -0.34999999999999964
     30 C          -1.7028    3.8043   -0.8029 C.2     1  LIG1      -0.20000000000000018
     31 C          -1.3201    4.8906    1.4807 C.3     1  LIG1      -0.34999999999999964
     32 C          -2.2406    2.8146    2.5167 C.2     1  LIG1      -0.2400000000000002
     33 C          -2.2788    1.5849    3.4119 C.3     1  LIG1      -0.4299999999999997
     34 C          -3.7623   -0.4148    2.9571 C.ar    1  LIG1      -0.29000000000000004
     35 C          -6.1473   -0.3256    3.3133 C.ar    1  LIG1         -0.25
     36 C           6.7582   -1.8528   -0.9947 C.2     1  LIG1      0.17999999999999972
     37 C           3.8156   -4.1256    0.3991 C.2     1  LIG1      0.16999999999999993
     38 C           2.0456   -2.6239   -3.4170 C.2     1  LIG1      0.16999999999999993
     39 C           2.6170    1.4653   -1.8160 C.2     1  LIG1      0.16999999999999993
     40 C           0.3696   -0.4897    1.1671 C.2     1  LIG1      0.16999999999999993
     41 C          -2.4354   -0.8000   -1.8289 C.2     1  LIG1      0.16999999999999993
     42 C          -1.4731    3.4834   -2.0830 C.2     1  LIG1      0.16999999999999993
     43 C          -1.2786    3.7513    2.4812 C.2     1  LIG1      0.17999999999999972
     44 C          -3.6324    0.9099    3.3866 C.ar    1  LIG1       0.1200000000000001
     45 C          -5.0123   -1.0319    2.9110 C.ar    1  LIG1       0.33999999999999986
     46 C          -6.0307    0.9924    3.7509 C.ar    1  LIG1       0.3200000000000003
     47 C          -4.7731    1.6231    3.7819 C.ar    1  LIG1       0.23000000000000043
     48 O          -5.1825   -2.3214    2.4697 O.3     1  LIG1      -0.6999999999999993
     49 O          -4.7143    2.9216    4.2360 O.3     1  LIG1      -0.6899999999999995
     50 O          -7.1662    1.6260    4.1954 O.3     1  LIG1      -0.5500000000000007
     51 H           7.5208    0.0861   -0.4220 H       1  LIG1       0.15000000000000002
     52 H           6.6600   -0.7452    0.8857 H       1  LIG1       0.16000000000000003
     53 H           5.7668   -0.0197   -0.4552 H       1  LIG1       0.17000000000000004
     54 H           7.0426   -2.6056   -3.0100 H       1  LIG1       0.16000000000000003
     55 H           6.2095   -1.0414   -2.9191 H       1  LIG1       0.17000000000000004
     56 H           7.9498   -1.1218   -2.6509 H       1  LIG1       0.15000000000000002
     57 H           2.9769   -6.1436    0.4045 H       1  LIG1       0.16000000000000003
     58 H           4.4260   -5.9400    1.3967 H       1  LIG1       0.16000000000000003
     59 H           2.8899   -5.2927    1.9577 H       1  LIG1       0.16000000000000003
     60 H           2.8834   -2.3268   -5.4116 H       1  LIG1       0.16000000000000003
     61 H           3.1719   -3.9270   -4.7239 H       1  LIG1       0.17000000000000004
     62 H           1.5685   -3.5144   -5.3217 H       1  LIG1       0.16000000000000003
     63 H           4.3315    2.0280   -0.5910 H       1  LIG1       0.17000000000000004
     64 H           4.7519    1.2446   -2.1263 H       1  LIG1       0.17000000000000004
     65 H           4.1852    2.9070   -2.1208 H       1  LIG1       0.16000000000000003
     66 H           0.9200   -2.5969    1.0253 H       1  LIG1       0.16000000000000003
     67 H           2.1658   -1.4744    0.4908 H       1  LIG1       0.18000000000000005
     68 H           1.8489   -1.6663    2.2100 H       1  LIG1       0.16000000000000003
     69 H          -1.9540   -1.2909   -3.8903 H       1  LIG1       0.16000000000000003
     70 H          -0.5946   -1.4700   -2.7838 H       1  LIG1       0.17000000000000004
     71 H          -1.8885   -2.6685   -2.7818 H       1  LIG1       0.15000000000000002
     72 H          -0.0494    4.8428   -2.9887 H       1  LIG1       0.16000000000000003
     73 H           0.7033    3.5058   -2.1072 H       1  LIG1       0.17000000000000004
     74 H          -0.0373    3.2246   -3.6860 H       1  LIG1       0.16000000000000003
     75 H           0.0374    4.6320    3.9465 H       1  LIG1       0.16000000000000003
     76 H          -0.0210    2.8568    4.0289 H       1  LIG1       0.17000000000000004
     77 H           0.8522    3.6685    2.7218 H       1  LIG1       0.18000000000000005
     78 H          -6.8657    3.5584    3.4399 H       1  LIG1       0.17000000000000004
     79 H          -7.7867    2.4500    2.3776 H       1  LIG1       0.16000000000000003
     80 H          -8.5320    3.0808    3.8762 H       1  LIG1       0.17000000000000004
     81 H           6.4771   -4.4290    1.1838 H       1  LIG1          0.14
     82 H           6.7654   -2.7624    1.6557 H       1  LIG1       0.15000000000000002
     83 H           3.2682   -4.9425   -2.6189 H       1  LIG1       0.15000000000000002
     84 H           2.1468   -5.4257   -1.3571 H       1  LIG1       0.15000000000000002
     85 H           3.8454   -0.1704   -3.6896 H       1  LIG1       0.16000000000000003
     86 H           2.5154   -0.2658   -4.8274 H       1  LIG1       0.15000000000000002
     87 H           2.9715    0.7726    0.9171 H       1  LIG1       0.16000000000000003
     88 H           2.3229    2.3966    0.9756 H       1  LIG1       0.16000000000000003
     89 H          -0.9254   -2.5366   -0.2458 H       1  LIG1       0.17000000000000004
     90 H          -1.9507   -2.4830    1.1731 H       1  LIG1       0.16000000000000003
     91 H          -1.3140    1.1425   -3.5060 H       1  LIG1       0.17000000000000004
     92 H          -2.9768    1.0344   -4.0424 H       1  LIG1       0.15000000000000002
     93 H           0.1887    3.9182    0.2394 H       1  LIG1       0.17000000000000004
     94 H          -0.3865    5.4432   -0.3978 H       1  LIG1       0.15000000000000002
     95 H           6.6044   -3.9242   -1.1565 H       1  LIG1          0.12
     96 H           4.4896   -3.3437    2.2906 H       1  LIG1          0.13
     97 H           4.4375   -2.1476    0.9973 H       1  LIG1       0.15000000000000002
     98 H           3.7487   -2.7921   -1.1950 H       1  LIG1          0.12
     99 H           0.8258   -4.3529   -3.0402 H       1  LIG1          0.14
    100 H           0.9066   -3.2237   -1.6881 H       1  LIG1       0.16000000000000003
    101 H           1.8887   -1.1352   -1.9721 H       1  LIG1          0.14
    102 H           2.5268    1.9706   -3.9106 H       1  LIG1          0.14
    103 H           1.0985    1.1349   -3.3036 H       1  LIG1       0.17000000000000004
    104 H           0.7461    0.9780   -1.0353 H       1  LIG1          0.12
    105 H           1.2101    0.8828    2.6001 H       1  LIG1          0.14
    106 H           0.0779    1.6072    1.4581 H       1  LIG1       0.16000000000000003
    107 H          -1.5251    0.2646    0.7547 H       1  LIG1          0.13
    108 H          -3.3574   -2.4685   -0.8289 H       1  LIG1          0.14
    109 H          -3.5274   -0.9305    0.0216 H       1  LIG1          0.14
    110 H          -3.2361    1.0228   -1.1840 H       1  LIG1          0.13
    111 H          -2.5308    3.3596   -3.9338 H       1  LIG1          0.14
    112 H          -3.5318    3.0250   -2.5248 H       1  LIG1          0.14
    113 H          -2.6865    3.5942   -0.3850 H       1  LIG1          0.13
    114 H          -0.7639    5.7426    1.8909 H       1  LIG1       0.15000000000000002
    115 H          -2.3524    5.2322    1.3359 H       1  LIG1       0.15000000000000002
    116 H          -3.0656    2.8966    1.8081 H       1  LIG1       0.15000000000000002
    117 H          -1.5165    0.8647    3.0933 H       1  LIG1       0.18999999999999995
    118 H          -2.0202    1.8628    4.4445 H       1  LIG1       0.18000000000000005
    119 H          -2.8709   -0.9624    2.6623 H       1  LIG1       0.17000000000000004
    120 H          -7.1273   -0.7894    3.2854 H       1  LIG1       0.15000000000000002
    121 H          -4.3240   -2.6621    2.1736 H       1  LIG1       0.44999999999999996
    122 H          -3.8697    3.3136    3.9550 H       1  LIG1       0.43999999999999995
@<TRIPOS>BOND
     1    60     4    1
     2    62     4    1
     3    86    13    1
     4     4    61    1
     5     4    38    1
     6    92    16    1
     7   111    29    1
     8   102    23    1
     9    69     7    1
    10    13    85    1
    11    13    23    1
    12    13    22    1
    13    74     8    1
    14    91    16    1
    15    38    22    2
    16    38    21    1
    17   103    23    1
    18    23    39    1
    19    16    29    1
    20    16    28    1
    21    99    21    1
    22    54     2    1
    23    22   101    1
    24    72     8    1
    25    29   112    1
    26    29    42    1
    27    55     2    1
    28     7    70    1
    29     7    71    1
    30     7    41    1
    31     8    73    1
    32     8    42    1
    33    56     2    1
    34    83    12    1
    35    21    12    1
    36    21   100    1
    37     2    36    1
    38    64     5    1
    39    65     5    1
    40    42    30    2
    41    28    41    2
    42    28   110    1
    43    41    27    1
    44    12    84    1
    45    12    20    1
    46    39     5    1
    47    39    24    2
    48     5    63    1
    49    98    20    1
    50    95    18    1
    51   104    24    1
    52    36    18    2
    53    36     1    1
    54    20    37    2
    55   108    27    1
    56    30   113    1
    57    30    17    1
    58    24    14    1
    59    27   109    1
    60    27    15    1
    61    18    11    1
    62    53     1    1
    63    51     1    1
    64    94    17    1
    65    89    15    1
    66     1    52    1
    67    17    93    1
    68    17    31    1
    69    15    26    1
    70    15    90    1
    71    37     3    1
    72    37    19    1
    73    57     3    1
    74    67     6    1
    75    14    87    1
    76    14    88    1
    77    14    25    1
    78   107    26    1
    79    26    40    2
    80    11    81    1
    81    11    19    1
    82    11    82    1
    83    97    19    1
    84    66     6    1
    85     3    58    1
    86     3    59    1
    87    40     6    1
    88    40    25    1
    89    19    96    1
    90     6    68    1
    91   115    31    1
    92   106    25    1
    93    31   114    1
    94    31    43    1
    95    25   105    1
    96   116    32    1
    97   121    48    1
    98    79    10    1
    99    48    45    1
   100    43    32    2
   101    43     9    1
   102    32    33    1
   103   119    34    1
   104    77     9    1
   105    45    34   ar
   106    45    35   ar
   107    34    44   ar
   108   117    33    1
   109   120    35    1
   110    35    46   ar
   111     9    75    1
   112     9    76    1
   113    44    33    1
   114    44    47   ar
   115    33   118    1
   116    10    78    1
   117    10    80    1
   118    10    50    1
   119    46    47   ar
   120    46    50    1
   121    47    49    1
   122   122    49    1
