@<TRIPOS>MOLECULE
CZMRCDWAGMRECN-UGDNZRGBSA-N	6044431	-1297.6200856852051
 45 45 0 0 0
SMALL
MULLIKEN NwChem

@<TRIPOS>ATOM
      1 C           0.5475   -4.1653   -0.3031 C.3     1  LIG1       -0.08000000000000007
      2 C          -0.4725    4.0207    0.8556 C.3     2  LIG2       -0.05999999999999961
      3 C          -2.0753   -0.1306    1.4671 C.2     2  LIG2       0.28000000000000025
      4 C           0.2633   -2.6936   -0.6174 C.3     1  LIG1       0.08999999999999986
      5 C          -0.4650    2.7744   -0.0266 C.3     2  LIG2       0.09999999999999964
      6 C           1.0372   -2.0562   -1.7945 C.3     1  LIG1       0.08999999999999986
      7 C          -1.6428    2.6319   -1.0204 C.3     2  LIG2       0.07000000000000028
      8 C           2.4489   -1.5695   -1.3986 C.3     1  LIG1       0.08000000000000007
      9 C           2.3563   -0.6904   -0.1403 C.3     1  LIG1       0.09999999999999964
     10 C          -2.5795    1.6410   -0.3002 C.3     2  LIG2       0.11000000000000032
     11 C           1.5944   -1.3931    0.9938 C.3     1  LIG1       0.33999999999999986
     12 C          -1.5349    0.7196    0.3442 C.3     2  LIG2       0.040000000000000036
     13 O           1.8681   -4.4384    0.1883 O.3     1  LIG1      -0.6500000000000004
     14 O          -1.7317    4.2688    1.4921 O.3     2  LIG2      -0.6600000000000001
     15 O          -1.4845   -0.3760    2.4984 O.2     2  LIG2      -0.4499999999999993
     16 O           0.2625   -0.9890   -2.3324 O.3     1  LIG1      -0.6999999999999993
     17 O          -1.2480    1.9879   -2.2240 O.3     2  LIG2      -0.6799999999999997
     18 O           3.3899   -2.6110   -1.2437 O.3     1  LIG1      -0.7100000000000009
     19 O           1.6655    0.5109   -0.4862 O.3     1  LIG1      -0.7100000000000009
     20 O          -3.4266    2.2464    0.6528 O.3     2  LIG2      -0.6899999999999995
     21 O           0.3215   -1.8844    0.5715 O.3     1  LIG1      -0.5399999999999991
     22 O          -0.5237    1.6130    0.8281 O.3     2  LIG2      -0.5500000000000007
     23 O           1.3622   -0.4514    1.9994 O.3     1  LIG1      -0.6999999999999993
     24 H           0.4329   -4.7568   -1.2176 H       1  LIG1       0.18000000000000005
     25 H          -0.1952   -4.5167    0.4241 H       1  LIG1       0.17000000000000004
     26 H           0.2496    3.8728    1.6630 H       2  LIG2       0.17000000000000004
     27 H          -0.1544    4.8917    0.2659 H       2  LIG2       0.17000000000000004
     28 H          -3.0736   -0.5683    1.2663 H       2  LIG2       0.17000000000000004
     29 H          -1.1173    0.0393   -0.4137 H       2  LIG2       0.18999999999999995
     30 H          -0.7916   -2.6558   -0.9158 H       1  LIG1       0.17000000000000004
     31 H           0.4872    2.7512   -0.5772 H       2  LIG2       0.17000000000000004
     32 H           1.1455   -2.8083   -2.5853 H       1  LIG1       0.16000000000000003
     33 H          -2.1539    3.5854   -1.2200 H       2  LIG2       0.17000000000000004
     34 H           2.8124   -0.9406   -2.2182 H       1  LIG1       0.16000000000000003
     35 H           3.3704   -0.4671    0.2184 H       1  LIG1       0.15000000000000002
     36 H          -3.2103    1.1188   -1.0223 H       2  LIG2       0.18000000000000005
     37 H           2.2084   -2.2197    1.3853 H       1  LIG1          0.13
     38 H           1.8821   -4.2295    1.1347 H       1  LIG1       0.44999999999999996
     39 H          -2.2933    4.7660    0.8772 H       2  LIG2       0.44999999999999996
     40 H           0.4192   -0.4785    2.2671 H       1  LIG1       0.44999999999999996
     41 H           0.5130   -0.1847   -1.8355 H       1  LIG1       0.43999999999999995
     42 H          -0.4828    2.4510   -2.5989 H       2  LIG2       0.43999999999999995
     43 H           2.9917   -3.3264   -0.7073 H       1  LIG1       0.43999999999999995
     44 H           1.2104    0.8033    0.3334 H       1  LIG1       0.45999999999999996
     45 H          -2.8631    2.7631    1.2668 H       2  LIG2       0.43000000000000005
@<TRIPOS>BOND
     1    42    17    1
     2    32     6    1
     3    16    41    1
     4    16     6    1
     5    17     7    1
     6    34     8    1
     7     6     8    1
     8     6     4    1
     9     8    18    1
    10     8     9    1
    11    18    43    1
    12    33     7    1
    13    24     1    1
    14    36    10    1
    15     7    10    1
    16     7     5    1
    17    30     4    1
    18     4     1    1
    19     4    21    1
    20    31     5    1
    21    19     9    1
    22    19    44    1
    23    29    12    1
    24     1    13    1
    25     1    25    1
    26    10    12    1
    27    10    20    1
    28     9    35    1
    29     9    11    1
    30     5    22    1
    31     5     2    1
    32    13    38    1
    33    27     2    1
    34    12    22    1
    35    12     3    1
    36    21    11    1
    37    20    45    1
    38     2    14    1
    39     2    26    1
    40    39    14    1
    41    11    37    1
    42    11    23    1
    43    28     3    1
    44     3    15    2
    45    23    40    1
