@<TRIPOS>MOLECULE
CZUGFKJYCPYHHV-UHFFFAOYSA-N	6044432	-631.7402577725458
 16 15 0 0 0
SMALL
MULLIKEN NwChem

@<TRIPOS>ATOM
      1 C           0.2687   -1.9043    0.6765 C.3     1  LIG1      -0.6100000000000003
      2 C          -0.3628    1.5258   -0.4741 C.3     1  LIG1      -0.2599999999999998
      3 C           0.0142    1.5477    1.0084 C.3     1  LIG1       -0.05999999999999961
      4 C          -0.0316    0.2167   -1.2030 C.3     1  LIG1      -0.4400000000000004
      5 O           1.4074    1.3442    1.2352 O.3     1  LIG1      -0.6699999999999999
      6 S          -0.9009   -1.2916   -0.5920 S.3     1  LIG1      0.009999999999999787
      7 H          -0.0856   -2.8929    0.9812 H       1  LIG1       0.19999999999999996
      8 H           0.3021   -1.2667    1.5654 H       1  LIG1       0.19999999999999996
      9 H           1.2750   -2.0171    0.2575 H       1  LIG1       0.19999999999999996
     10 H           0.1724    2.3384   -0.9845 H       1  LIG1       0.15000000000000002
     11 H          -1.4371    1.7298   -0.5665 H       1  LIG1       0.15000000000000002
     12 H          -0.2085    2.5336    1.4288 H       1  LIG1       0.16000000000000003
     13 H          -0.5954    0.8149    1.5591 H       1  LIG1       0.15000000000000002
     14 H           1.0476    0.0213   -1.1882 H       1  LIG1       0.18999999999999995
     15 H          -0.3163    0.3007   -2.2566 H       1  LIG1       0.19999999999999996
     16 H           1.6140    0.4223    1.0231 H       1  LIG1       0.43000000000000005
@<TRIPOS>BOND
     1    15     4    1
     2     4    14    1
     3     4     6    1
     4     4     2    1
     5    10     2    1
     6     6     1    1
     7    11     2    1
     8     2     3    1
     9     9     1    1
    10     1     7    1
    11     1     8    1
    12     3     5    1
    13     3    12    1
    14     3    13    1
    15    16     5    1
