@<TRIPOS>MOLECULE
DAEAPNUQQAICNR-RRKCRQDMSA-K	11152620	-2022.1901946459632
 38 40 0 0 0
SMALL
MULLIKEN NwChem

@<TRIPOS>ATOM
      1 C          -0.9881   -0.6777   -2.2838 C.3     1  LIG1       -0.33000000000000007
      2 C           1.3667   -1.8122    0.3997 C.3     1  LIG1       -0.05999999999999961
      3 C          -5.9328   -0.1100   -0.2623 C.ar    1  LIG1       0.15000000000000036
      4 C          -1.7219    0.7937    0.5265 C.ar    1  LIG1       0.16999999999999993
      5 C           0.4362   -0.6009   -1.7090 C.3     1  LIG1       0.08000000000000007
      6 C           0.4687   -1.8711   -0.8307 C.3     1  LIG1       0.1200000000000001
      7 C          -1.7877   -1.2433   -1.1112 C.3     1  LIG1       0.2599999999999998
      8 C          -3.8241    1.1085    0.8069 C.ar    1  LIG1       0.20000000000000018
      9 C          -5.1187    1.5451    1.1027 C.ar    1  LIG1       0.41999999999999993
     10 C          -3.7179    0.0179   -0.0775 C.ar    1  LIG1          0.54
     11 N          -5.3311    2.6037    1.9812 N.pl3   1  LIG1      -0.7800000000000002
     12 N          -6.1865    0.9332    0.5547 N.ar    1  LIG1        -0.54
     13 N          -4.7616   -0.6305   -0.6329 N.ar    1  LIG1        -0.54
     14 N          -2.5833    1.5763    1.1688 N.ar    1  LIG1      -0.5999999999999996
     15 N          -2.3720   -0.1757   -0.2455 N.ar    1  LIG1      -0.5199999999999996
     16 O           1.4246   -0.5288   -2.6871 O.3     1  LIG1        -0.75
     17 O           1.0603    1.3687    0.5458 O.3     1  LIG1      -0.7300000000000004
     18 O           3.1303    2.9265    0.5129 O.3     1  LIG1      -0.7300000000000004
     19 O           2.7765    1.1930   -1.3790 O.2     1  LIG1      -0.7899999999999991
     20 O           3.6161   -1.7497    2.3522 O.3     1  LIG1      -0.7400000000000002
     21 O           5.1725   -1.3335    0.2856 O.2     1  LIG1      -0.7100000000000009
     22 O           2.6981   -1.8020   -0.0613 O.3     1  LIG1      -0.6099999999999994
     23 O          -0.9237   -2.0653   -0.3796 O.3     1  LIG1      -0.5500000000000007
     24 O           3.4057    0.4354    1.0563 O.3     1  LIG1      -0.6899999999999995
     25 P           2.5431    1.5871    0.1043 P.3     1  LIG1       1.0399999999999991
     26 P           3.8533   -1.1256    0.9888 P.3     1  LIG1       1.0500000000000007
     27 H          -1.0080   -1.3983   -3.1159 H       1  LIG1       0.16000000000000003
     28 H          -1.3755    0.2819   -2.6424 H       1  LIG1       0.17000000000000004
     29 H           1.1238   -0.9066    0.9669 H       1  LIG1       0.16000000000000003
     30 H           1.1678   -2.6918    1.0416 H       1  LIG1          0.12
     31 H          -6.8182   -0.5887   -0.6852 H       1  LIG1       0.16000000000000003
     32 H          -0.6093    0.9192    0.5577 H       1  LIG1          0.26
     33 H           0.5166    0.2637   -1.0362 H       1  LIG1       0.17000000000000004
     34 H           0.7416   -2.7347   -1.4593 H       1  LIG1          0.13
     35 H          -2.6702   -1.8185   -1.4182 H       1  LIG1       0.17000000000000004
     36 H          -6.1724    3.1288    1.7740 H       1  LIG1          0.36
     37 H          -4.5019    3.1794    2.0874 H       1  LIG1          0.36
     38 H           2.1063    0.1053   -2.2158 H       1  LIG1       0.43000000000000005
@<TRIPOS>BOND
     1    27     1    1
     2    16    38    1
     3    16     5    1
     4    28     1    1
     5     1     5    1
     6     1     7    1
     7     5    33    1
     8     5     6    1
     9    34     6    1
    10    35     7    1
    11    19    25    2
    12     7    23    1
    13     7    15    1
    14     6    23    1
    15     6     2    1
    16    31     3    1
    17    13     3   ar
    18    13    10   ar
    19     3    12   ar
    20    15    10   ar
    21    15     4   ar
    22    10     8   ar
    23    22     2    1
    24    22    26    1
    25    25    18    1
    26    25    17    1
    27    25    24    1
    28    21    26    2
    29     2    29    1
    30     2    30    1
    31     4    32    1
    32     4    14   ar
    33    12     9   ar
    34     8     9   ar
    35     8    14   ar
    36    26    24    1
    37    26    20    1
    38     9    11    1
    39    36    11    1
    40    11    37    1
