@<TRIPOS>MOLECULE
DAYLJWODMCOQEW-TURQNECASA-M	11152619	-1480.2349091537403
 36 37 0 0 0
SMALL
MULLIKEN NwChem

@<TRIPOS>ATOM
      1 C          -3.1473   -1.8250   -0.4865 C.2     1  LIG1      -0.1900000000000004
      2 C          -4.3349   -1.1199   -0.2766 C.3     1  LIG1       -0.11000000000000032
      3 C          -1.9578   -1.1346   -0.6360 C.2     1  LIG1      0.1200000000000001
      4 C          -3.0938    0.9175   -0.3683 C.2     1  LIG1       0.08999999999999986
      5 C           1.8975   -1.5373   -0.6802 C.3     1  LIG1       -0.05999999999999961
      6 C          -4.3168    0.2768   -0.2200 C.2     1  LIG1       0.04999999999999982
      7 C           1.4197   -0.1036   -0.3807 C.3     1  LIG1       0.09999999999999964
      8 C           0.8327    0.1790    1.0234 C.3     1  LIG1       0.08000000000000007
      9 C          -0.1241    1.3478    0.7281 C.3     1  LIG1       0.09999999999999964
     10 C          -5.6122    1.0614   -0.0140 C.2     1  LIG1       0.41999999999999993
     11 C          -0.6449    0.9879   -0.6714 C.3     1  LIG1          0.25
     12 N          -5.3865    2.3604   -0.0044 N.am    1  LIG1      -0.7800000000000002
     13 N          -1.9534    0.2194   -0.5711 N.pl3   1  LIG1      -0.41999999999999993
     14 O           1.7488    0.6062    1.9834 O.3     1  LIG1      -0.7200000000000006
     15 O           0.6178    2.5426    0.6280 O.3     1  LIG1      -0.6799999999999997
     16 O          -6.6522    0.3623    0.1048 O.2     1  LIG1      -0.6799999999999997
     17 O           4.6226    0.2240    0.3199 O.3     1  LIG1      -0.7300000000000004
     18 O           5.4913   -2.2010    0.4160 O.2     1  LIG1      -0.6600000000000001
     19 O           3.3289   -1.4098    1.7603 O.3     1  LIG1      -0.7300000000000004
     20 O           3.2995   -1.6701   -0.7883 O.3     1  LIG1      -0.5899999999999999
     21 O           0.3103    0.1986   -1.2945 O.3     1  LIG1      -0.5399999999999991
     22 P           4.2545   -1.3823    0.5563 P.3     1  LIG1       1.1400000000000006
     23 H          -3.1313   -2.9088   -0.5410 H       1  LIG1       0.20999999999999996
     24 H          -5.3006   -1.6018   -0.1577 H       1  LIG1       0.18999999999999995
     25 H          -1.0017   -1.6007   -0.8247 H       1  LIG1          0.25
     26 H          -3.0397    2.0001   -0.3272 H       1  LIG1       0.22999999999999998
     27 H           1.4902   -1.8215   -1.6581 H       1  LIG1       0.17000000000000004
     28 H           1.5006   -2.2267    0.0789 H       1  LIG1       0.17000000000000004
     29 H           2.2312    0.6006   -0.5849 H       1  LIG1       0.18000000000000005
     30 H           0.2571   -0.7029    1.3562 H       1  LIG1       0.16000000000000003
     31 H          -0.9392    1.4382    1.4609 H       1  LIG1       0.18000000000000005
     32 H          -0.8751    1.8776   -1.2644 H       1  LIG1       0.21999999999999997
     33 H          -6.2920    2.8219    0.1335 H       1  LIG1          0.25
     34 H           2.4733   -0.1052    2.0170 H       1  LIG1       0.45999999999999996
     35 H           1.4049    2.3685    1.1876 H       1  LIG1       0.43000000000000005
     36 H           5.4513    0.2407   -0.1837 H       1  LIG1       0.44999999999999996
@<TRIPOS>BOND
     1    27     5    1
     2    21    11    1
     3    21     7    1
     4    32    11    1
     5    25     3    1
     6    20     5    1
     7    20    22    1
     8     5     7    1
     9     5    28    1
    10    11    13    1
    11    11     9    1
    12     3    13    1
    13     3     1    2
    14    29     7    1
    15    13     4    1
    16    23     1    1
    17     1     2    1
    18     7     8    1
    19     4    26    1
    20     4     6    2
    21     2     6    1
    22     2    24    1
    23     6    10    1
    24    36    17    1
    25    10    12   am
    26    10    16    2
    27    12    33    1
    28    17    22    1
    29    18    22    2
    30    22    19    1
    31    15     9    1
    32    15    35    1
    33     9     8    1
    34     9    31    1
    35     8    30    1
    36     8    14    1
    37    14    34    1
