@<TRIPOS>MOLECULE
DBPZYKHQDWKORQ-SINUOACOSA-N	6044435	-1168.1484036642485
 73 76 0 0 0
SMALL
MULLIKEN NwChem

@<TRIPOS>ATOM
      1 C          -5.2791   -0.5715   -5.9013 C.3     1  LIG1      -0.5300000000000002
      2 C          -4.1725    1.5903   -6.6240 C.3     1  LIG1      -0.5199999999999996
      3 C          -3.2416    2.0711   -1.0093 C.3     1  LIG1      -0.4800000000000004
      4 C           2.7341   -3.0027    1.8609 C.3     1  LIG1      -0.4900000000000002
      5 C           0.1143    2.0721   -1.7155 C.3     1  LIG1      -0.4900000000000002
      6 C           2.8980    1.7459    3.2255 C.3     1  LIG1      -0.46999999999999975
      7 C          -4.9232    0.4213   -2.9449 C.3     1  LIG1      -0.33000000000000007
      8 C          -4.5151    1.1410   -4.2039 C.2     1  LIG1      -0.17999999999999972
      9 C          -3.7244   -0.1427   -2.1468 C.3     1  LIG1      -0.2599999999999998
     10 C           3.3444   -0.3704    0.2460 C.3     1  LIG1      -0.33999999999999986
     11 C           4.2984   -0.3920    1.4579 C.3     1  LIG1      -0.2999999999999998
     12 C          -0.9620   -1.1085   -1.5967 C.3     1  LIG1      -0.29000000000000004
     13 C           0.2919   -1.4095   -0.7805 C.3     1  LIG1      -0.28000000000000025
     14 C           0.0457    0.8100    1.9235 C.3     1  LIG1      -0.3700000000000001
     15 C           1.2035   -1.5777    4.3365 C.3     1  LIG1       -0.3600000000000003
     16 C          -0.3081    1.7269    0.7432 C.3     1  LIG1      -0.29000000000000004
     17 C           1.6548   -0.1100    4.3184 C.3     1  LIG1      -0.2999999999999998
     18 C          -4.6484    0.7324   -5.4750 C.2     1  LIG1      0.16999999999999993
     19 C          -2.6276    0.8782   -1.7619 C.3     1  LIG1      -0.07000000000000028
     20 C           3.3290   -2.1916    3.0359 C.3     1  LIG1       -0.16000000000000014
     21 C           1.9184    0.0142    0.5572 C.2     1  LIG1      0.11000000000000032
     22 C          -1.5018    0.1846   -0.9541 C.3     1  LIG1      -0.11000000000000032
     23 C           3.6016   -0.6667    2.8050 C.3     1  LIG1      -0.09999999999999964
     24 C           0.9737   -0.0281   -0.6244 C.3     1  LIG1      -0.1900000000000004
     25 C           1.4704    0.3049    1.7905 C.2     1  LIG1      0.08000000000000007
     26 C           2.4315   -2.4596    4.2404 C.2     1  LIG1       0.45999999999999996
     27 C          -0.2048    1.0277   -0.6298 C.3     1  LIG1      0.13999999999999968
     28 C           2.3886    0.2951    3.0159 C.3     1  LIG1      0.03000000000000025
     29 O           2.6838   -3.3315    5.0520 O.2     1  LIG1      -0.5299999999999994
     30 H          -4.5871   -1.1469   -6.5318 H       1  LIG1       0.16000000000000003
     31 H          -6.1730   -0.3838   -6.5147 H       1  LIG1       0.16000000000000003
     32 H          -5.5755   -1.2069   -5.0634 H       1  LIG1       0.16000000000000003
     33 H          -3.7151    2.5248   -6.2810 H       1  LIG1       0.16000000000000003
     34 H          -3.4344    1.0540   -7.2383 H       1  LIG1       0.16000000000000003
     35 H          -5.0056    1.8459   -7.2957 H       1  LIG1       0.16000000000000003
     36 H          -3.7134    1.7394   -0.0746 H       1  LIG1          0.14
     37 H          -2.4958    2.8273   -0.7554 H       1  LIG1       0.16000000000000003
     38 H          -4.0099    2.5704   -1.6083 H       1  LIG1       0.15000000000000002
     39 H           3.4305   -3.0411    1.0204 H       1  LIG1       0.17000000000000004
     40 H           2.5583   -4.0340    2.1860 H       1  LIG1       0.15000000000000002
     41 H           1.7910   -2.5842    1.5032 H       1  LIG1       0.18000000000000005
     42 H          -0.6072    2.8958   -1.7361 H       1  LIG1       0.15000000000000002
     43 H           1.1041    2.5066   -1.5285 H       1  LIG1          0.14
     44 H           0.1354    1.6185   -2.7135 H       1  LIG1       0.15000000000000002
     45 H           2.0543    2.4277    3.3857 H       1  LIG1       0.15000000000000002
     46 H           3.5526    1.8157    4.1039 H       1  LIG1       0.15000000000000002
     47 H           3.4492    2.1096    2.3534 H       1  LIG1       0.15000000000000002
     48 H          -5.4981    1.1090   -2.3101 H       1  LIG1          0.14
     49 H          -5.6009   -0.4087   -3.1698 H       1  LIG1       0.15000000000000002
     50 H          -4.0397    2.1101   -4.0415 H       1  LIG1          0.13
     51 H          -4.1043   -0.6197   -1.2301 H       1  LIG1          0.12
     52 H          -3.2770   -0.9375   -2.7535 H       1  LIG1          0.14
     53 H           3.7315    0.3338   -0.5057 H       1  LIG1       0.15000000000000002
     54 H           3.3369   -1.3418   -0.2661 H       1  LIG1       0.15000000000000002
     55 H           4.8074    0.5761    1.5266 H       1  LIG1       0.15000000000000002
     56 H           5.0913   -1.1334    1.2979 H       1  LIG1          0.14
     57 H          -0.7032   -0.9283   -2.6502 H       1  LIG1          0.13
     58 H          -1.6828   -1.9308   -1.5730 H       1  LIG1          0.14
     59 H           0.0012   -1.7928    0.2067 H       1  LIG1          0.14
     60 H           0.9539   -2.1533   -1.2374 H       1  LIG1          0.14
     61 H          -0.0828    1.3748    2.8522 H       1  LIG1       0.15000000000000002
     62 H          -0.6682   -0.0255    1.9827 H       1  LIG1       0.15000000000000002
     63 H           0.6565   -1.8287    5.2498 H       1  LIG1       0.16000000000000003
     64 H           0.5481   -1.7698    3.4756 H       1  LIG1       0.18999999999999995
     65 H           0.3902    2.5739    0.7685 H       1  LIG1          0.12
     66 H          -1.3119    2.1392    0.8823 H       1  LIG1          0.14
     67 H           0.7975    0.5458    4.5016 H       1  LIG1       0.16000000000000003
     68 H           2.3433    0.0546    5.1600 H       1  LIG1       0.15000000000000002
     69 H          -2.1917    1.2512   -2.6985 H       1  LIG1          0.12
     70 H           4.2948   -2.6521    3.2755 H       1  LIG1          0.14
     71 H          -1.9433   -0.1085    0.0126 H       1  LIG1          0.12
     72 H           4.3212   -0.4010    3.5929 H       1  LIG1          0.13
     73 H           1.5655    0.1352   -1.5358 H       1  LIG1           0.12
@<TRIPOS>BOND
     1    35     2    1
     2    34     2    1
     3     2    33    1
     4     2    18    1
     5    30     1    1
     6    31     1    1
     7     1    18    1
     8     1    32    1
     9    18     8    2
    10     8    50    1
    11     8     7    1
    12    49     7    1
    13     7    48    1
    14     7     9    1
    15    52     9    1
    16    44     5    1
    17    69    19    1
    18    57    12    1
    19     9    19    1
    20     9    51    1
    21    19     3    1
    22    19    22    1
    23    42     5    1
    24     5    43    1
    25     5    27    1
    26    38     3    1
    27    12    58    1
    28    12    22    1
    29    12    13    1
    30    73    24    1
    31    60    13    1
    32     3    37    1
    33     3    36    1
    34    22    27    1
    35    22    71    1
    36    13    24    1
    37    13    59    1
    38    27    24    1
    39    27    16    1
    40    24    21    1
    41    53    10    1
    42    54    10    1
    43    10    21    1
    44    10    11    1
    45    21    25    2
    46    16    65    1
    47    16    66    1
    48    16    14    1
    49    39     4    1
    50    56    11    1
    51    11    55    1
    52    11    23    1
    53    41     4    1
    54    25    14    1
    55    25    28    1
    56     4    40    1
    57     4    20    1
    58    14    62    1
    59    14    61    1
    60    47     6    1
    61    23    28    1
    62    23    20    1
    63    23    72    1
    64    28     6    1
    65    28    17    1
    66    20    70    1
    67    20    26    1
    68     6    45    1
    69     6    46    1
    70    64    15    1
    71    26    15    1
    72    26    29    2
    73    17    15    1
    74    17    67    1
    75    17    68    1
    76    15    63    1
