@<TRIPOS>MOLECULE
DBXBTMSZEOQQDU-VKHMYHEASA-M	6044436	-382.38147166367685
 14 13 0 0 0
SMALL
MULLIKEN NwChem

@<TRIPOS>ATOM
      1 C           1.1004   -1.4644   -0.1012 C.3     1  LIG1      -0.45999999999999996
      2 C           1.1368    1.0691   -0.1382 C.3     1  LIG1       -0.040000000000000036
      3 C           0.5437   -0.1823    0.5347 C.3     1  LIG1       -0.17999999999999972
      4 C          -1.0240   -0.2136    0.4396 C.2     1  LIG1          0.54
      5 O           0.7822    1.1623   -1.5047 O.3     1  LIG1      -0.7100000000000009
      6 O          -1.6325   -0.7474    1.3871 O.co2   1  LIG1      -0.6600000000000001
      7 O          -1.5161    0.2727   -0.6343 O.co2   1  LIG1      -0.6699999999999999
      8 H           0.8723   -1.4689   -1.1722 H       1  LIG1          0.14
      9 H           0.6427   -2.3475    0.3600 H       1  LIG1          0.14
     10 H           2.1935   -1.5366    0.0122 H       1  LIG1          0.14
     11 H           0.8026    1.9638    0.4261 H       1  LIG1       0.10999999999999999
     12 H           2.2391    1.0504   -0.0769 H       1  LIG1          0.12
     13 H           0.8054   -0.1709    1.6019 H       1  LIG1       0.10999999999999999
     14 H          -0.1881    0.9024   -1.4571 H       1  LIG1       0.41000000000000003
@<TRIPOS>BOND
     1     5    14    1
     2     5     2    1
     3     8     1    1
     4     7     4   ar
     5     2    12    1
     6     2    11    1
     7     2     3    1
     8     1    10    1
     9     1     9    1
    10     1     3    1
    11     4     3    1
    12     4     6   ar
    13     3    13    1
