@<TRIPOS>MOLECULE
DCTLYFZHFGENCW-UUOKFMHZSA-L	11152618	-1625.2706065741334
 35 37 0 0 0
SMALL
MULLIKEN NwChem

@<TRIPOS>ATOM
      1 C           1.6910   -1.0627   -1.5447 C.3     1  LIG1       -0.08000000000000007
      2 C          -1.7011   -0.1280    2.8393 C.ar    1  LIG1       0.17999999999999972
      3 C           1.3466   -1.8093   -0.2598 C.3     1  LIG1       0.15000000000000036
      4 C          -2.3910    1.2086    1.3174 C.ar    1  LIG1       0.08999999999999986
      5 C          -0.0540   -2.4253   -0.3361 C.3     1  LIG1       0.040000000000000036
      6 C          -0.4497   -2.5369    1.1417 C.3     1  LIG1       0.08999999999999986
      7 C          -1.1802    0.7010    0.8477 C.ar    1  LIG1       0.5199999999999996
      8 C          -3.1302    2.1297    0.4532 C.ar    1  LIG1       0.4800000000000004
      9 C           0.2152   -1.2726    1.7305 C.3     1  LIG1          0.25
     10 C          -1.3002    1.9061   -1.0324 C.ar    1  LIG1       0.6100000000000003
     11 N          -2.6950    0.6780    2.5694 N.ar    1  LIG1      -0.5800000000000001
     12 N          -0.5647    1.0058   -0.3102 N.ar    1  LIG1      -0.6900000000000004
     13 N          -2.4834    2.4324   -0.7436 N.ar    1  LIG1      -0.6299999999999999
     14 N          -0.7228   -0.1651    1.8452 N.ar    1  LIG1      -0.5099999999999998
     15 O          -0.0025   -3.7114   -0.9800 O.3     1  LIG1      -0.6600000000000001
     16 O           0.1330   -3.7094    1.7038 O.3     1  LIG1      -0.6899999999999995
     17 O          -4.2424    2.6053    0.7400 O.2     1  LIG1      -0.6699999999999999
     18 O          -0.7550    2.2994   -2.1937 O.3     1  LIG1      -0.6999999999999993
     19 O           1.7756    1.5796   -2.6883 O.2     1  LIG1      -0.7400000000000002
     20 O           2.2357    1.7428   -0.1745 O.3     1  LIG1      -0.7699999999999996
     21 O           4.2518    1.7726   -1.7680 O.3     1  LIG1      -0.6799999999999997
     22 O           2.9199   -0.3817   -1.4749 O.3     1  LIG1      -0.5999999999999996
     23 O           1.3018   -0.9520    0.8907 O.3     1  LIG1      -0.5399999999999991
     24 P           2.8386    1.3084   -1.6281 P.3     1  LIG1       1.1099999999999994
     25 H           1.7364   -1.8327   -2.3362 H       1  LIG1       0.15000000000000002
     26 H           0.8712   -0.3828   -1.7893 H       1  LIG1       0.17000000000000004
     27 H          -1.5894   -0.7220    3.7404 H       1  LIG1       0.18999999999999995
     28 H           2.0848   -2.6055   -0.0735 H       1  LIG1       0.15000000000000002
     29 H          -0.7237   -1.7373   -0.8646 H       1  LIG1       0.18000000000000005
     30 H          -1.5349   -2.5262    1.3141 H       1  LIG1       0.16000000000000003
     31 H           0.5784   -1.4992    2.7429 H       1  LIG1       0.18000000000000005
     32 H          -0.9020   -3.9071   -1.2837 H       1  LIG1       0.44999999999999996
     33 H           0.2958   -4.2861    0.9337 H       1  LIG1       0.43000000000000005
     34 H           0.1929    1.9693   -2.2924 H       1  LIG1          0.47
     35 H           1.2850    1.4663   -0.1321 H       1  LIG1       0.45999999999999996
@<TRIPOS>BOND
     1    19    24    2
     2    25     1    1
     3    34    18    1
     4    18    10    1
     5    26     1    1
     6    21    24    1
     7    24    22    1
     8    24    20    1
     9     1    22    1
    10     1     3    1
    11    32    15    1
    12    10    13   ar
    13    10    12   ar
    14    15     5    1
    15    29     5    1
    16    13     8   ar
    17     5     3    1
    18     5     6    1
    19    12     7   ar
    20     3    28    1
    21     3    23    1
    22    20    35    1
    23     8    17    2
    24     8     4   ar
    25     7     4   ar
    26     7    14   ar
    27    23     9    1
    28    33    16    1
    29     6    30    1
    30     6    16    1
    31     6     9    1
    32     4    11   ar
    33     9    14    1
    34     9    31    1
    35    14     2   ar
    36    11     2   ar
    37     2    27    1
