@<TRIPOS>MOLECULE
DCXYFEDJOCDNAF-REOHCLBHSA-N	6044439	-492.33380668357364
 17 16 0 0 0
SMALL
MULLIKEN NwChem

@<TRIPOS>ATOM
      1 CB          0.4766   -0.3677    1.2459 C.3     1  ASN1       -0.3200000000000003
      2 CA         -0.0504    0.9805    0.6858 C.3     1  ASN1       -0.08000000000000007
      3 CG         -0.1455   -1.5352    0.5144 C.3     1  ASN1       0.4800000000000004
      4 C           0.3958    1.1533   -0.7707 C.2     1  ASN1       0.5899999999999999
      5 N          -1.4925    1.0707    0.8617 N.3     1  ASN1        -0.75
      6 ND2        -1.2552   -2.1151    0.7424 N.3     1  ASN1      -0.6799999999999997
      7 OD1         0.6027   -1.9027   -0.5571 O.3     1  ASN1      -0.5999999999999996
      8 O          -0.3498    1.1680   -1.7237 O.2     1  ASN1      -0.5099999999999998
      9 OXT         1.7391    1.2862   -0.8713 O.3     1  ASN1      -0.5800000000000001
     10 HB1         0.2052   -0.4135    2.3035 H       1  ASN1       0.18999999999999995
     11 HB2         1.5644   -0.4060    1.1490 H       1  ASN1       0.18999999999999995
     12 HA          0.4278    1.7757    1.2697 H       1  ASN1       0.19999999999999996
     13 H1         -1.8053    2.0045    0.6010 H       1  ASN1       0.33999999999999997
     14 H2         -1.9395    0.4429    0.1932 H       1  ASN1       0.31999999999999995
     15 HD2        -1.7075   -1.7100    1.5628 H       1  ASN1       0.32999999999999996
     16 HD1         0.0897   -2.5927   -1.0185 H       1  ASN1       0.43999999999999995
     17 HXT         1.9446    1.3389   -1.8238 H       1  ASN1       0.44999999999999996
@<TRIPOS>BOND
     1    17     9    1
     2     8     4    2
     3    16     7    1
     4     9     4    1
     5     4     2    1
     6     7     3    1
     7    14     5    1
     8     3     6    1
     9     3     1    1
    10    13     5    1
    11     2     5    1
    12     2     1    1
    13     2    12    1
    14     6    15    1
    15    11     1    1
    16     1    10    1
