@<TRIPOS>MOLECULE
DDSLGZOYEPKPSJ-UHFFFAOYSA-N	6044442	-440.324715444225
 20 19 0 0 0
SMALL
MULLIKEN NwChem

@<TRIPOS>ATOM
      1 C          -0.5264    0.0431    2.1233 C.3     1  LIG1       -0.5599999999999996
      2 C          -0.1724    0.0502   -1.9479 C.3     1  LIG1      -0.28000000000000025
      3 C           1.0822   -0.7207   -1.4742 C.3     1  LIG1       -0.33999999999999986
      4 C          -1.0931    0.4609   -0.7862 C.3     1  LIG1       -0.16000000000000014
      5 C           0.7090   -2.1087   -1.0179 C.2     1  LIG1       0.2599999999999998
      6 C          -0.2148    1.2505    1.2732 C.2     1  LIG1       0.5099999999999998
      7 N          -0.4434    1.4633    0.0389 N.2     1  LIG1      -0.4900000000000002
      8 O           0.6236   -2.4670    0.1388 O.2     1  LIG1      -0.4299999999999997
      9 O           0.4098    2.2229    1.9900 O.2     1  LIG1      -0.6199999999999992
     10 H          -1.6028   -0.1587    2.1234 H       1  LIG1       0.18999999999999995
     11 H          -0.2004    0.2141    3.1505 H       1  LIG1       0.18000000000000005
     12 H          -0.0215   -0.8423    1.7227 H       1  LIG1       0.19999999999999996
     13 H          -0.7390   -0.5593   -2.6656 H       1  LIG1       0.16000000000000003
     14 H           0.1505    0.9546   -2.4751 H       1  LIG1       0.16000000000000003
     15 H           1.7914   -0.8081   -2.3080 H       1  LIG1       0.18000000000000005
     16 H           1.5635   -0.1821   -0.6523 H       1  LIG1       0.17000000000000004
     17 H          -1.4092   -0.4377   -0.2339 H       1  LIG1       0.15000000000000002
     18 H          -2.0012    0.9088   -1.2116 H       1  LIG1       0.16000000000000003
     19 H           0.4618   -2.8198   -1.8404 H       1  LIG1          0.14
     20 H           0.5686    2.9477    1.3560 H       1  LIG1       0.43000000000000005
@<TRIPOS>BOND
     1    13     2    1
     2    14     2    1
     3    15     3    1
     4     2     3    1
     5     2     4    1
     6    19     5    1
     7     3     5    1
     8     3    16    1
     9    18     4    1
    10     5     8    2
    11     4    17    1
    12     4     7    1
    13     7     6    2
    14     6     9    1
    15     6     1    1
    16    20     9    1
    17    12     1    1
    18     1    10    1
    19     1    11    1
