@<TRIPOS>MOLECULE
DEDGUGJNLNLJSR-VURMDHGXSA-M	6044443	-572.8691308264363
 19 19 0 0 0
SMALL
MULLIKEN NwChem

@<TRIPOS>ATOM
      1 C          -3.6887   -0.8742    0.3354 C.ar    1  LIG1      -0.17999999999999972
      2 C          -3.1290    0.4093    0.2761 C.ar    1  LIG1      -0.16999999999999993
      3 C          -2.8251   -1.9755    0.2830 C.ar    1  LIG1      -0.16000000000000014
      4 C          -1.7557    0.6020    0.1676 C.ar    1  LIG1      -0.23000000000000043
      5 C          -1.4507   -1.7954    0.1737 C.ar    1  LIG1      -0.2400000000000002
      6 C           0.5676   -0.3705   -0.0103 C.3     1  LIG1       -0.3700000000000001
      7 C          -0.8578   -0.5034    0.1097 C.ar    1  LIG1      0.16999999999999993
      8 C           1.2760    0.8373   -0.0930 C.2     1  LIG1       0.3200000000000003
      9 C           2.8044    0.7077   -0.2526 C.2     1  LIG1       0.5099999999999998
     10 O           0.8468    2.0202   -0.0711 O.2     1  LIG1      -0.6899999999999995
     11 O           3.5708    1.6329   -0.4462 O.2     1  LIG1      -0.5500000000000007
     12 O           3.3169   -0.5727   -0.1582 O.3     1  LIG1      -0.6099999999999994
     13 H          -4.7650   -1.0128    0.4194 H       1  LIG1          0.13
     14 H          -3.7821    1.2818    0.3152 H       1  LIG1          0.13
     15 H          -3.2307   -2.9868    0.3271 H       1  LIG1          0.14
     16 H          -1.3260    1.5958    0.1217 H       1  LIG1          0.13
     17 H          -0.7978   -2.6672    0.1333 H       1  LIG1          0.13
     18 H           1.1352   -1.2946   -0.0462 H       1  LIG1       0.10999999999999999
     19 H           4.2739   -0.4401   -0.2897 H       1  LIG1       0.43000000000000005
@<TRIPOS>BOND
     1    11     9    2
     2    19    12    1
     3     9    12    1
     4     9     8    1
     5     8    10    2
     6     8     6    1
     7    18     6    1
     8     6     7    1
     9     7     4   ar
    10     7     5   ar
    11    16     4    1
    12    17     5    1
    13     4     2   ar
    14     5     3   ar
    15     2    14    1
    16     2     1   ar
    17     3    15    1
    18     3     1   ar
    19     1    13    1
