@<TRIPOS>MOLECULE
DFPAKSUCGFBDDF-UHFFFAOYSA-N	6044445	-416.8885336500358
 15 15 0 0 0
SMALL
MULLIKEN NwChem

@<TRIPOS>ATOM
      1 C          -0.2031    2.2083    0.0787 C.ar    1  LIG1      -0.15000000000000036
      2 C          -0.8390    0.9733   -0.0088 C.ar    1  LIG1      -0.13999999999999968
      3 C           1.1895    2.2395    0.1609 C.ar    1  LIG1       0.03000000000000025
      4 C           1.3315   -0.0375    0.0770 C.ar    1  LIG1       -0.019999999999999574
      5 C          -0.0604   -0.1921   -0.0108 C.ar    1  LIG1       0.08999999999999986
      6 C          -0.6853   -1.5400   -0.1043 C.3     1  LIG1       0.45999999999999996
      7 N          -0.1399   -2.6923   -0.1066 N.3     1  LIG1      -0.7000000000000002
      8 N           1.9549    1.1393    0.1612 N.ar    1  LIG1      -0.45999999999999996
      9 O          -2.0391   -1.4635   -0.1997 O.3     1  LIG1      -0.6199999999999992
     10 H          -0.7745    3.1315    0.0828 H       1  LIG1       0.18000000000000005
     11 H          -1.9184    0.9020   -0.0750 H       1  LIG1       0.18999999999999995
     12 H           1.7186    3.1883    0.2295 H       1  LIG1       0.18000000000000005
     13 H           1.9841   -0.9093    0.0789 H       1  LIG1       0.18000000000000005
     14 H           0.8752   -2.6474   -0.0299 H       1  LIG1       0.32999999999999996
     15 H          -2.3468   -2.3870   -0.2548 H       1  LIG1       0.43999999999999995
@<TRIPOS>BOND
     1    15     9    1
     2     9     6    1
     3     7     6    1
     4     7    14    1
     5     6     5    1
     6    11     2    1
     7     5     2   ar
     8     5     4   ar
     9     2     1   ar
    10     4    13    1
    11     4     8   ar
    12     1    10    1
    13     1     3   ar
    14     3     8   ar
    15     3    12    1
