@<TRIPOS>MOLECULE
DFSPELNJAJEWOM-UHFFFAOYSA-N	6044447	-1236.9820086071845
 33 35 0 0 0
SMALL
MULLIKEN NwChem

@<TRIPOS>ATOM
      1 C1          4.5770    1.8785   -0.5579 C.ar    1  <1>       -0.2400000000000002
      2 C2          3.6339    2.7799   -1.0411 C.ar    1  <1>       -0.1900000000000004
      3 C3         -0.2739   -0.3827   -1.0591 C.3     1  <1>       -0.3600000000000003
      4 C4          2.9293    0.0802   -0.4660 C.ar    1  <1>       -0.29000000000000004
      5 C5          0.1418    2.0756   -1.7002 C.ar    1  <1>        -0.009999999999999787
      6 C6         -3.1848   -0.3946    1.3277 C.3     1  <1>        -0.41000000000000014
      7 C7          0.5619    0.8424   -1.2626 C.ar    1  <1>       0.040000000000000036
      8 C8          4.2271    0.5400   -0.2735 C.ar    1  <1>        0.33000000000000007
      9 C9          1.9628    0.9752   -0.9510 C.ar    1  <1>        0.07000000000000028
     10 C10         2.3309    2.3193   -1.2327 C.ar    1  <1>        0.29000000000000004
     11 C11        -2.8339   -1.6162    0.4731 C.3     1  <1>        -0.04999999999999982
     12 C12        -0.6675   -0.5971    0.4218 C.3     1  <1>        -0.09999999999999964
     13 C13        -3.5998   -2.8823    0.8149 C.2     1  <1>        0.6100000000000003
     14 N1          1.1965    2.9655   -1.6919 N.ar    1  <1>       -0.6900000000000004
     15 N2         -1.4124   -1.8211    0.6994 N.3     1  <1>       -0.5899999999999999
     16 O1          5.1512   -0.3599    0.2032 O.3     1  <1>       -0.6899999999999995
     17 O2         -3.1342   -3.9988    0.8018 O.2     1  <1>       -0.5099999999999998
     18 O3         -4.9029   -2.6232    1.0787 O.3     1  <1>       -0.5800000000000001
     19 S1         -1.7886    0.7713    1.0254 S.3     1  <1>       0.009999999999999787
     20 H1          5.6018    2.2072   -0.3961 H       1  <1>        0.16000000000000003
     21 H2          3.9112    3.8081   -1.2575 H       1  <1>        0.16000000000000003
     22 H3         -1.1813   -0.3399   -1.6719 H       1  <1>        0.17000000000000004
     23 H4          0.2919   -1.2722   -1.3770 H       1  <1>        0.16000000000000003
     24 H5          2.6917   -0.9540   -0.2372 H       1  <1>        0.15000000000000002
     25 H6         -0.8445    2.3885   -2.0131 H       1  <1>        0.18000000000000005
     26 H7         -4.1278    0.0632    1.0240 H       1  <1>        0.19999999999999996
     27 H8         -3.2346   -0.6654    2.3856 H       1  <1>        0.19999999999999996
     28 H9         -3.0973   -1.3844   -0.5788 H       1  <1>        0.19999999999999996
     29 H10         0.2398   -0.5833    1.0345 H       1  <1>        0.18000000000000005
     30 H11         1.1436    3.9348   -1.9605 H       1  <1>           0.37
     31 H12        -1.0560   -2.6216    0.1825 H       1  <1>        0.33999999999999997
     32 H13         6.0039    0.0894    0.3020 H       1  <1>        0.43999999999999995
     33 H14        -5.3278   -3.4866    1.2417 H       1  <1>        0.44999999999999996
@<TRIPOS>BOND
     1    25     5    1
     2    30    14    1
     3     5    14   ar
     4     5     7   ar
     5    14    10   ar
     6    22     3    1
     7    23     3    1
     8     7     3    1
     9     7     9   ar
    10    21     2    1
    11    10     2   ar
    12    10     9   ar
    13     3    12    1
    14     2     1   ar
    15     9     4   ar
    16    28    11    1
    17     1    20    1
    18     1     8   ar
    19     4     8   ar
    20     4    24    1
    21     8    16    1
    22    31    15    1
    23    16    32    1
    24    12    15    1
    25    12    19    1
    26    12    29    1
    27    11    15    1
    28    11    13    1
    29    11     6    1
    30    17    13    2
    31    13    18    1
    32    26     6    1
    33    19     6    1
    34    18    33    1
    35     6    27    1
