@<TRIPOS>MOLECULE
DGGUVLXVLHAAGT-XINAWCOVSA-J	11152535	-2626.5470140634206
 42 43 0 0 0
SMALL
MULLIKEN NwChem

@<TRIPOS>ATOM
      1 C          -3.1668    1.5239    0.2611 C.3     1  LIG1       -0.20999999999999996
      2 C           0.5547   -0.8021   -1.0085 C.3     1  LIG1       -0.09999999999999964
      3 C          -3.0661    0.5935   -0.9271 C.2     1  LIG1       0.3099999999999996
      4 C          -0.9120   -0.7286   -0.5458 C.3     1  LIG1       0.16000000000000014
      5 C          -5.3559    0.3108   -0.7815 C.ar    1  LIG1       0.1299999999999999
      6 C          -1.7194    0.2149   -1.5032 C.3     1  LIG1       0.040000000000000036
      7 C          -5.3444    0.6426    0.5465 C.ar    1  LIG1       0.46999999999999975
      8 C          -6.6710    0.0040   -1.4246 C.ar    1  LIG1       0.46999999999999975
      9 C          -7.7552    0.3584    0.6758 C.ar    1  LIG1       0.5700000000000003
     10 N          -8.7767    0.4841    1.4975 N.pl3   1  LIG1      -0.8200000000000003
     11 N          -4.1615    1.0219    1.2242 N.pl3   1  LIG1      -0.6399999999999997
     12 N          -4.1324    0.0820   -1.4408 N.2     1  LIG1      -0.5999999999999996
     13 N          -6.4949    0.5876    1.2858 N.ar    1  LIG1      -0.6799999999999997
     14 N          -7.8037    0.0570   -0.6416 N.ar    1  LIG1      -0.6600000000000001
     15 O          -1.0454   -0.2952    0.7929 O.3     1  LIG1      -0.7300000000000004
     16 O          -1.9010   -0.3952   -2.7762 O.3     1  LIG1      -0.6899999999999995
     17 O          -6.7280   -0.2779   -2.6355 O.2     1  LIG1      -0.6699999999999999
     18 O           7.4411   -0.8688   -0.4454 O.3     1  LIG1      -0.7699999999999996
     19 O           7.7705    0.5674    1.6615 O.3     1  LIG1      -0.6899999999999995
     20 O           7.3495    1.7239   -0.6467 O.2     1  LIG1      -0.7100000000000009
     21 O           1.3497   -0.5166    1.7514 O.3     1  LIG1      -0.7400000000000002
     22 O           2.0839   -3.0383    1.7040 O.2     1  LIG1      -0.6699999999999999
     23 O           4.9990   -1.0832   -1.4958 O.2     1  LIG1      -0.7100000000000009
     24 O           3.2939    0.8150   -0.8720 O.3     1  LIG1      -0.6699999999999999
     25 O           1.2501   -1.8927   -0.4092 O.3     1  LIG1      -0.6099999999999994
     26 O           5.4409    0.3943    0.5549 O.3     1  LIG1      -0.6699999999999999
     27 O           3.5753   -1.2871    0.6386 O.3     1  LIG1      -0.6400000000000006
     28 P           7.1150    0.5678    0.3001 P.3     1  LIG1       1.0299999999999994
     29 P           2.0483   -1.6852    1.0525 P.3     1  LIG1       1.1300000000000008
     30 P           4.2949   -0.2241   -0.4515 P.3     1  LIG1       1.1199999999999992
     31 H          -2.2019    1.6158    0.7565 H       1  LIG1       0.18999999999999995
     32 H          -3.5135    2.5124   -0.0858 H       1  LIG1       0.18000000000000005
     33 H           1.0698    0.1457   -0.8134 H       1  LIG1       0.17000000000000004
     34 H           0.5624   -0.9773   -2.0919 H       1  LIG1       0.15000000000000002
     35 H          -1.3675   -1.7278   -0.6745 H       1  LIG1       0.10999999999999999
     36 H          -1.1230    1.1345   -1.6346 H       1  LIG1       0.15000000000000002
     37 H          -9.6001    0.3008    0.9149 H       1  LIG1          0.26
     38 H          -3.7523    0.2391    1.7416 H       1  LIG1          0.36
     39 H          -6.5033    1.0038    2.2061 H       1  LIG1          0.35
     40 H          -0.1261   -0.3769    1.2379 H       1  LIG1       0.44999999999999996
     41 H          -2.8521   -0.6343   -2.7749 H       1  LIG1       0.41000000000000003
     42 H           6.6150   -1.0888   -0.9701 H       1  LIG1       0.44999999999999996
@<TRIPOS>BOND
     1    16    41    1
     2    16     6    1
     3    17     8    2
     4    34     2    1
     5    36     6    1
     6     6     3    1
     7     6     4    1
     8    23    30    2
     9    12     3    2
    10    12     5    1
    11     8     5   ar
    12     8    14   ar
    13     2    33    1
    14     2     4    1
    15     2    25    1
    16    42    18    1
    17     3     1    1
    18    24    30    1
    19     5     7   ar
    20    35     4    1
    21    20    28    2
    22    14     9   ar
    23     4    15    1
    24    30    26    1
    25    30    27    1
    26    18    28    1
    27    25    29    1
    28    32     1    1
    29     1    31    1
    30     1    11    1
    31    28    26    1
    32    28    19    1
    33     7    11    1
    34     7    13   ar
    35    27    29    1
    36     9    13   ar
    37     9    10    1
    38    15    40    1
    39    37    10    1
    40    29    22    2
    41    29    21    1
    42    11    38    1
    43    13    39    1
