@<TRIPOS>MOLECULE
DGVIESZNPVJDPQ-SOOFDHNKSA-L	11152534	-1523.6844400426714
 22 22 0 0 0
SMALL
MULLIKEN NwChem

@<TRIPOS>ATOM
      1 C          -2.8934   -0.9724    1.2296 C.3     1  LIG1       -0.40000000000000036
      2 C          -1.6529   -0.1455    1.0274 C.3     1  LIG1       0.16999999999999993
      3 C          -1.8356    0.8188   -0.1814 C.3     1  LIG1       0.08000000000000007
      4 C          -0.3572    0.8962   -0.7799 C.3     1  LIG1       0.1200000000000001
      5 C           0.4421   -0.0574    0.1654 C.3     1  LIG1       0.34999999999999964
      6 CL         -2.9040   -2.0203    2.7742 Cl      1  LIG1      -0.17999999999999972
      7 O          -2.2250    2.1133    0.1756 O.3     1  LIG1      -0.7300000000000004
      8 O           0.0486    2.2016   -0.7418 O.3     1  LIG1      -0.7899999999999991
      9 O           2.6404    1.4413   -0.6902 O.3     1  LIG1      -0.7699999999999996
     10 O           2.2014   -0.0784   -2.7565 O.2     1  LIG1      -0.7100000000000009
     11 O           3.9596   -0.7379   -0.9073 O.3     1  LIG1      -0.6999999999999993
     12 O          -0.5466   -0.9655    0.7286 O.3     1  LIG1      -0.5500000000000007
     13 O           1.4375   -0.8350   -0.3934 O.3     1  LIG1      -0.6300000000000008
     14 P           2.6754   -0.0749   -1.3247 P.3     1  LIG1       1.0500000000000007
     15 H          -3.7690   -0.3283    1.3259 H       1  LIG1       0.22999999999999998
     16 H          -3.0202   -1.6818    0.4098 H       1  LIG1       0.21999999999999997
     17 H          -1.4715    0.4869    1.9143 H       1  LIG1          0.13
     18 H          -2.5416    0.3757   -0.9089 H       1  LIG1          0.12
     19 H          -0.3376    0.4352   -1.7860 H       1  LIG1       0.06999999999999995
     20 H           0.8330    0.5677    0.9931 H       1  LIG1       0.09999999999999998
     21 H          -1.3289    2.5725   -0.0973 H       1  LIG1          0.39
     22 H           1.7345    1.8633   -0.8096 H       1  LIG1       0.43000000000000005
@<TRIPOS>BOND
     1    10    14    2
     2    19     4    1
     3    14    11    1
     4    14     9    1
     5    14    13    1
     6    18     3    1
     7    22     9    1
     8     4     8    1
     9     4     3    1
    10     4     5    1
    11    13     5    1
    12     3     7    1
    13     3     2    1
    14    21     7    1
    15     5    12    1
    16     5    20    1
    17    16     1    1
    18    12     2    1
    19     2     1    1
    20     2    17    1
    21     1    15    1
    22     1     6    1
