@<TRIPOS>MOLECULE
DHCDFWKWKRSZHF-UHFFFAOYSA-M	6044451	-1022.7309724273083
 6 5 0 0 0
SMALL
MULLIKEN NwChem

@<TRIPOS>ATOM
      1 O          -1.7071   -0.0042    0.3549 O.2     1  LIG1      -0.5800000000000001
      2 O           0.3040    1.4242    0.8933 O.3     1  LIG1      -0.6999999999999993
      3 O           0.3857   -1.0138    1.2987 O.2     1  LIG1      -0.5800000000000001
      4 S           0.5232   -0.1677   -1.5475 S.3     1  LIG1       -0.5799999999999983
      5 S          -0.2325   -0.0893    0.3330 S.O2    1  LIG1       0.9700000000000006
      6 H           0.2546    1.9907    0.1027 H       1  LIG1       0.45999999999999996
@<TRIPOS>BOND
     1     4     5    1
     2     6     2    1
     3     5     1    2
     4     5     2    1
     5     5     3    2
