@<TRIPOS>MOLECULE
DHMQDGOQFOQNFH-UHFFFAOYSA-N	6044452	-284.38333423321774
 10 9 0 0 0
SMALL
MULLIKEN NwChem

@<TRIPOS>ATOM
      1 CA          0.4329    0.6232    0.6984 C.3     1  GLY1       -0.2400000000000002
      2 C          -0.0727   -0.1130   -0.5380 C.2     1  GLY1       0.5700000000000003
      3 N           0.0122    0.0515    1.9656 N.3     1  GLY1        -0.75
      4 OXT        -0.7701   -1.1031   -0.5216 O.2     1  GLY1      -0.5099999999999998
      5 O           0.3543    0.4767   -1.6809 O.3     1  GLY1      -0.5800000000000001
      6 HA1         0.1014    1.6666    0.6286 H       1  GLY1       0.19999999999999996
      7 HA2         1.5283    0.6564    0.6467 H       1  GLY1       0.19999999999999996
      8 H1         -1.0061    0.0089    1.9849 H       1  GLY1       0.32999999999999996
      9 H2          0.3116   -0.9221    2.0029 H       1  GLY1       0.32999999999999996
     10 H          -0.0087   -0.0496   -2.4183 H       1  GLY1       0.44999999999999996
@<TRIPOS>BOND
     1    10     5    1
     2     5     2    1
     3     2     4    2
     4     2     1    1
     5     6     1    1
     6     7     1    1
     7     1     3    1
     8     3     8    1
     9     3     9    1
