@<TRIPOS>MOLECULE
DIVQKHQLANKJQO-UHFFFAOYSA-O	6044453	-556.2570642643278
 26 26 0 0 0
SMALL
MULLIKEN NwChem

@<TRIPOS>ATOM
      1 C           0.8532   -2.9102    1.2926 C.3     1  LIG1       -0.2400000000000002
      2 C           0.3295    1.5822   -0.9823 C.ar    1  LIG1      -0.20000000000000018
      3 C           0.6484    0.6340   -1.9598 C.ar    1  LIG1      -0.20999999999999996
      4 C          -0.2596    2.1895    1.4026 C.3     1  LIG1      -0.3700000000000001
      5 C          -1.7792    2.4064    1.3377 C.3     1  LIG1      -0.16000000000000014
      6 C           0.3512   -0.1660    0.6903 C.ar    1  LIG1      -0.2999999999999998
      7 C           0.1848    1.1963    0.3488 C.ar    1  LIG1      0.08999999999999986
      8 C           0.8192   -0.7089   -1.6313 C.ar    1  LIG1       0.29000000000000004
      9 C           0.6774   -1.1203   -0.2790 C.ar    1  LIG1       0.3600000000000003
     10 N          -2.4731    1.0506    1.4342 N.4     1  LIG1       -0.7199999999999998
     11 O           1.1283   -1.6773   -2.5231 O.3     1  LIG1      -0.6699999999999999
     12 O           0.8783   -2.4338   -0.0489 O.3     1  LIG1      -0.5199999999999996
     13 H           1.0700   -3.9766    1.2310 H       1  LIG1       0.18999999999999995
     14 H          -0.1366   -2.7683    1.7491 H       1  LIG1       0.18000000000000005
     15 H           1.6164   -2.4148    1.9063 H       1  LIG1       0.17000000000000004
     16 H           0.2136    2.6245   -1.2680 H       1  LIG1       0.16000000000000003
     17 H           0.7749    0.9453   -2.9940 H       1  LIG1       0.17000000000000004
     18 H           0.0243    1.8564    2.4088 H       1  LIG1       0.18999999999999995
     19 H           0.2066    3.1697    1.2547 H       1  LIG1       0.18999999999999995
     20 H          -2.1730    3.0296    2.1436 H       1  LIG1       0.21999999999999997
     21 H          -2.0757    2.8223    0.3727 H       1  LIG1       0.21999999999999997
     22 H           0.3065   -0.4621    1.7344 H       1  LIG1       0.18000000000000005
     23 H          -2.4487    0.6840    2.3924 H       1  LIG1      0.44999999999999996
     24 H          -3.4522    1.0787    1.1304 H       1  LIG1      0.44999999999999996
     25 H          -1.9430    0.3815    0.8393 H       1  LIG1      0.43000000000000005
     26 H           1.2528   -1.2900   -3.4045 H       1  LIG1       0.44999999999999996
@<TRIPOS>BOND
     1    26    11    1
     2    17     3    1
     3    11     8    1
     4     3     8   ar
     5     3     2   ar
     6     8     9   ar
     7    16     2    1
     8     2     7   ar
     9     9    12    1
    10     9     6   ar
    11    12     1    1
    12     7     6   ar
    13     7     4    1
    14    21     5    1
    15     6    22    1
    16    25    10    1
    17    24    10    1
    18    13     1    1
    19    19     4    1
    20     1    14    1
    21     1    15    1
    22     5     4    1
    23     5    10    1
    24     5    20    1
    25     4    18    1
    26    10    23    1
