@<TRIPOS>MOLECULE
DJHGAFSJWGLOIV-UHFFFAOYSA-L	6044455	-2537.172842572678
 6 4 0 0 0
SMALL
MULLIKEN NwChem

@<TRIPOS>ATOM
      1 AS         -0.4400   -0.0303    0.0301 As      1  LIG1       0.8100000000000023
      2 O          -0.6738    1.6308    0.0857 O.3     1  LIG1       -0.7799999999999994
      3 O          -0.5996   -0.8724   -1.4129 O.3     1  LIG1       -0.7799999999999994
      4 O           0.6599   -0.7413    1.2722 O.3     2  LIG2       -0.4800000000000004
      5 O           1.6818   -0.1176    0.2812 O.3     2  LIG2       -0.5899999999999999
      6 H          -1.7405   -0.5744    0.8745 H       1  LIG1       -0.18999999999999995
@<TRIPOS>BOND
     1     3     1    1
     2     1     2    1
     3     1     6    1
     4     5     4    1
