@<TRIPOS>MOLECULE
DJJCXFVJDGTHFX-XVFCMESISA-L	11152531	-1477.6587444790741
 32 33 0 0 0
SMALL
MULLIKEN NwChem

@<TRIPOS>ATOM
      1 C           3.5836    1.9556    1.7194 C.ar    1  LIG1       -0.29000000000000004
      2 C           2.4147    1.4460    1.2686 C.ar    1  LIG1       0.08999999999999986
      3 C          -1.7338   -0.4691    1.4077 C.3     1  LIG1       -0.05999999999999961
      4 C          -1.1440   -0.0002    0.0763 C.3     1  LIG1       0.09999999999999964
      5 C           4.6637    2.2660    0.7675 C.ar    1  LIG1       0.5199999999999996
      6 C          -0.5971   -1.1372   -0.8331 C.3     1  LIG1       0.08000000000000007
      7 C           0.9190   -0.8325   -0.8701 C.3     1  LIG1       0.13999999999999968
      8 C           0.9655    0.6847   -0.5963 C.3     1  LIG1       0.2599999999999998
      9 C           3.3287    1.3732   -0.9816 C.ar    1  LIG1       0.6900000000000004
     10 N           4.4641    1.9300   -0.5553 N.ar    1  LIG1      -0.6500000000000004
     11 N           2.2373    1.1807   -0.0644 N.ar    1  LIG1         -0.5
     12 O           5.7164    2.8042    1.1639 O.2     1  LIG1      -0.6699999999999999
     13 O          -1.1770   -1.0793   -2.1170 O.3     1  LIG1      -0.7200000000000006
     14 O           1.5724   -1.2392   -2.0391 O.3     1  LIG1      -0.7200000000000006
     15 O           3.1212    0.9879   -2.1640 O.2     1  LIG1      -0.6699999999999999
     16 O          -3.7791   -1.2213   -1.1005 O.2     1  LIG1      -0.6899999999999995
     17 O          -4.9344   -2.5071    0.7872 O.3     1  LIG1      -0.7100000000000009
     18 O          -4.7487    0.0578    1.0070 O.3     1  LIG1      -0.6999999999999993
     19 O          -2.6986   -1.4999    1.2413 O.3     1  LIG1      -0.5800000000000001
     20 O          -0.0544    0.9017    0.3670 O.3     1  LIG1      -0.5600000000000005
     21 P          -4.0876   -1.1352    0.3730 P.3     1  LIG1       1.0700000000000003
     22 H           3.7307    2.1794    2.7714 H       1  LIG1          0.13
     23 H           1.5595    1.2320    1.8985 H       1  LIG1       0.19999999999999996
     24 H          -2.1664    0.3867    1.9446 H       1  LIG1       0.16000000000000003
     25 H          -0.9230   -0.8893    2.0170 H       1  LIG1       0.16000000000000003
     26 H          -1.9029    0.5441   -0.4963 H       1  LIG1       0.16000000000000003
     27 H          -0.7861   -2.1148   -0.3661 H       1  LIG1          0.14
     28 H           1.3674   -1.3058    0.0269 H       1  LIG1          0.13
     29 H           0.7617    1.2259   -1.5299 H       1  LIG1       0.16000000000000003
     30 H          -2.1441   -1.1725   -1.9385 H       1  LIG1       0.43999999999999995
     31 H           2.2151   -0.5114   -2.2418 H       1  LIG1       0.43000000000000005
     32 H          -5.3394   -2.2946    1.6423 H       1  LIG1       0.44999999999999996
@<TRIPOS>BOND
     1    31    14    1
     2    15     9    2
     3    13    30    1
     4    13     6    1
     5    14     7    1
     6    29     8    1
     7    16    21    2
     8     9    10   ar
     9     9    11   ar
    10     7     6    1
    11     7     8    1
    12     7    28    1
    13     6    27    1
    14     6     4    1
    15     8    11    1
    16     8    20    1
    17    10     5   ar
    18    26     4    1
    19    11     2   ar
    20     4    20    1
    21     4     3    1
    22    21    17    1
    23    21    18    1
    24    21    19    1
    25     5    12    2
    26     5     1   ar
    27    17    32    1
    28    19     3    1
    29     2     1   ar
    30     2    23    1
    31     3    24    1
    32     3    25    1
    33     1    22    1
