@<TRIPOS>MOLECULE
DKYFEOWQCCNWLB-GYZZQDEESA-N	6044457	-2027.7427332521593
 132 134 0 0 0
SMALL
MULLIKEN NwChem

@<TRIPOS>ATOM
      1 C           2.7766   -4.9768   10.1278 C.3     1  LIG1      -0.45999999999999996
      2 C           2.7352   -8.1012   -2.9724 C.3     2  LIG2      -0.5199999999999996
      3 C           3.3209   -6.0445   -1.6004 C.3     2  LIG2      -0.5300000000000002
      4 C           0.1166   -4.5089   -4.5749 C.3     2  LIG2      -0.46999999999999975
      5 C          -3.4243    5.2966   -2.0943 C.3     2  LIG2      -0.4800000000000004
      6 C          -2.8853    4.8018    0.2707 C.3     2  LIG2      -0.4800000000000004
      7 C          -1.7345    1.7202    0.5757 C.3     2  LIG2      -0.5099999999999998
      8 C          -1.5290   -1.7225   -4.1808 C.3     2  LIG2         -0.5
      9 C           0.0776    0.5084   -4.9575 C.3     2  LIG2      -0.4900000000000002
     10 C           1.9286   -3.6982   10.1159 C.3     1  LIG1      -0.2599999999999998
     11 C           2.6982   -2.4474    9.6568 C.3     1  LIG1      -0.2599999999999998
     12 C           3.1993   -2.4769    8.2013 C.3     1  LIG1      -0.2699999999999996
     13 C           2.1021   -2.6374    7.1343 C.3     1  LIG1      -0.2699999999999996
     14 C           0.9944   -1.5704    7.1702 C.3     1  LIG1      -0.2599999999999998
     15 C           1.4882   -0.1143    7.1210 C.3     1  LIG1      -0.2599999999999998
     16 C           2.3666    0.2367    5.8993 C.3     1  LIG1      -0.3200000000000003
     17 C           1.6853   -0.0063    4.5747 C.2     1  LIG1      -0.1200000000000001
     18 C           1.1203    0.9287    3.7997 C.2     1  LIG1      -0.13999999999999968
     19 C           1.0645    2.4094    4.1110 C.3     1  LIG1      -0.3200000000000003
     20 C           2.3531    3.1835    3.7513 C.3     1  LIG1      -0.2599999999999998
     21 C           2.7737    3.1047    2.2782 C.3     1  LIG1      -0.2599999999999998
     22 C           1.8166    3.8101    1.3105 C.3     1  LIG1      -0.29000000000000004
     23 C           2.3300    3.7674   -0.1550 C.3     1  LIG1      -0.33000000000000007
     24 C           2.3059    2.4182   -0.7363 C.3     1  LIG1      -0.1900000000000004
     25 C           3.3167   -4.4528   -4.3159 C.3     2  LIG2      -0.3099999999999996
     26 C           3.0051   -5.9110   -4.1059 C.2     2  LIG2      -0.16999999999999993
     27 C           2.4065   -3.7314   -5.3368 C.3     2  LIG2      -0.28000000000000025
     28 C          -6.6888    3.7433   -3.9743 C.3     2  LIG2          -0.5
     29 C          -0.3282    2.5088   -2.8847 C.3     2  LIG2      -0.3600000000000003
     30 C          -0.9530    3.4806   -1.8857 C.3     2  LIG2      -0.2999999999999998
     31 C           2.1838   -1.2450   -3.7985 C.3     2  LIG2      -0.3099999999999996
     32 C          -1.7583   -0.8008   -1.3626 C.3     2  LIG2      -0.3600000000000003
     33 C          -4.7577    2.2327   -0.1028 C.3     2  LIG2      -0.29000000000000004
     34 C          -3.8309    1.1804   -0.7305 C.3     2  LIG2      -0.28000000000000025
     35 C           1.6724   -0.0024   -3.0748 C.3     2  LIG2      -0.2999999999999998
     36 C          -0.6266   -1.6995   -1.8539 C.3     2  LIG2      -0.2999999999999998
     37 C           3.0180   -6.6170   -2.9652 C.2     2  LIG2      0.16999999999999993
     38 C           0.9945   -3.2832   -4.8745 C.3     2  LIG2      -0.08000000000000007
     39 C           1.0420   -2.2935   -3.6799 C.3     2  LIG2      -0.09999999999999964
     40 C          -1.5187    0.6654   -1.6666 C.2     2  LIG2      0.08000000000000007
     41 C          -0.6172    1.0445   -2.5976 C.2     2  LIG2      0.08000000000000007
     42 C          -2.3890    3.0390   -1.6019 C.3     2  LIG2      -0.11000000000000032
     43 C          -4.7556    3.5468   -0.8806 C.3     2  LIG2       0.1200000000000001
     44 C          -6.3086    4.0967   -2.6538 C.2     2  LIG2       0.6100000000000003
     45 C          -3.3338    4.1524   -1.0545 C.3     2  LIG2       0.08999999999999986
     46 C          -2.3610    1.6692   -0.8434 C.3     2  LIG2      0.040000000000000036
     47 C          -0.2697   -1.4432   -3.3331 C.3     2  LIG2      0.11000000000000032
     48 C           0.1757    0.0610   -3.4710 C.3     2  LIG2      0.03000000000000025
     49 O          -6.7730    5.0210   -1.9832 O.2     2  LIG2      -0.6300000000000008
     50 O          -5.3098    3.2591   -2.1806 O.3     2  LIG2      -0.5299999999999994
     51 H           3.1406   -5.2333    9.1272 H       1  LIG1       0.15000000000000002
     52 H           2.1998   -5.8342   10.4964 H       1  LIG1          0.14
     53 H           3.6514   -4.8567   10.7794 H       1  LIG1          0.14
     54 H           3.5854   -8.6670   -2.5636 H       2  LIG2       0.15000000000000002
     55 H           1.8694   -8.3410   -2.3398 H       2  LIG2       0.15000000000000002
     56 H           2.5322   -8.4744   -3.9806 H       2  LIG2       0.16000000000000003
     57 H           3.3521   -4.9512   -1.5882 H       2  LIG2       0.16000000000000003
     58 H           2.5666   -6.3685   -0.8713 H       2  LIG2       0.16000000000000003
     59 H           4.2913   -6.4121   -1.2312 H       2  LIG2       0.16000000000000003
     60 H           0.0757   -5.1806   -5.4400 H       2  LIG2          0.14
     61 H           0.5320   -5.0812   -3.7402 H       2  LIG2          0.14
     62 H          -0.9081   -4.2321   -4.3191 H       2  LIG2       0.15000000000000002
     63 H          -3.5747    4.9049   -3.1042 H       2  LIG2          0.14
     64 H          -4.2710    5.9499   -1.8638 H       2  LIG2          0.14
     65 H          -2.5171    5.9102   -2.0995 H       2  LIG2       0.15000000000000002
     66 H          -1.8647    5.1921    0.1823 H       2  LIG2       0.15000000000000002
     67 H          -3.5444    5.6473    0.5023 H       2  LIG2          0.14
     68 H          -2.9094    4.1274    1.1267 H       2  LIG2       0.16000000000000003
     69 H          -2.3690    2.2335    1.3006 H       2  LIG2       0.15000000000000002
     70 H          -1.5798    0.7048    0.9554 H       2  LIG2       0.15000000000000002
     71 H          -0.7608    2.2155    0.5737 H       2  LIG2       0.17000000000000004
     72 H          -2.0476   -2.6250   -3.8438 H       2  LIG2       0.15000000000000002
     73 H          -2.2361   -0.8921   -4.0826 H       2  LIG2       0.15000000000000002
     74 H          -1.3123   -1.8412   -5.2453 H       2  LIG2       0.15000000000000002
     75 H          -0.9566    0.7214   -5.2425 H       2  LIG2       0.15000000000000002
     76 H           0.6686    1.4119   -5.1408 H       2  LIG2       0.15000000000000002
     77 H           0.4492   -0.2630   -5.6374 H       2  LIG2       0.16000000000000003
     78 H           1.0471   -3.8469    9.4782 H       1  LIG1          0.14
     79 H           1.5409   -3.5164   11.1277 H       1  LIG1          0.13
     80 H           2.0597   -1.5652    9.8025 H       1  LIG1          0.14
     81 H           3.5643   -2.3050   10.3195 H       1  LIG1          0.13
     82 H           3.7590   -1.5515    8.0114 H       1  LIG1          0.14
     83 H           3.9259   -3.2909    8.0790 H       1  LIG1          0.13
     84 H           2.5789   -2.6337    6.1436 H       1  LIG1          0.14
     85 H           1.6373   -3.6272    7.2345 H       1  LIG1          0.13
     86 H           0.3114   -1.7460    6.3285 H       1  LIG1          0.13
     87 H           0.3904   -1.7000    8.0785 H       1  LIG1          0.14
     88 H           0.6164    0.5521    7.1256 H       1  LIG1          0.13
     89 H           2.0567    0.1126    8.0323 H       1  LIG1          0.14
     90 H           2.6796    1.2801    5.9853 H       1  LIG1       0.15000000000000002
     91 H           3.2934   -0.3535    5.9379 H       1  LIG1       0.15000000000000002
     92 H           1.6349   -1.0456    4.2494 H       1  LIG1          0.14
     93 H           0.6606    0.6141    2.8615 H       1  LIG1          0.14
     94 H           0.2101    2.8563    3.5892 H       1  LIG1       0.15000000000000002
     95 H           0.8702    2.5525    5.1808 H       1  LIG1       0.15000000000000002
     96 H           2.2209    4.2357    4.0352 H       1  LIG1          0.14
     97 H           3.1740    2.7976    4.3671 H       1  LIG1       0.15000000000000002
     98 H           3.7720    3.5474    2.1663 H       1  LIG1       0.15000000000000002
     99 H           2.8703    2.0521    1.9801 H       1  LIG1          0.14
    100 H           0.8248    3.3467    1.3475 H       1  LIG1       0.18000000000000005
    101 H           1.6809    4.8588    1.6055 H       1  LIG1       0.16000000000000003
    102 H           1.6592    4.4271   -0.7443 H       1  LIG1          0.24
    103 H           3.3309    4.2106   -0.2232 H       1  LIG1       0.19999999999999996
    104 H           3.1513    1.9927   -1.2668 H       1  LIG1          0.25
    105 H           1.4178    1.8015   -0.6432 H       1  LIG1          0.24
    106 H           4.3406   -4.3877   -4.7162 H       2  LIG2       0.15000000000000002
    107 H           3.3411   -3.9095   -3.3669 H       2  LIG2       0.16000000000000003
    108 H           2.7804   -6.4540   -5.0270 H       2  LIG2          0.12
    109 H           2.2883   -4.3879   -6.2136 H       2  LIG2          0.13
    110 H           2.9502   -2.8543   -5.7007 H       2  LIG2          0.14
    111 H          -7.4670    4.3157   -4.4627 H       2  LIG2          0.13
    112 H          -6.2115    2.9150   -4.4833 H       2  LIG2          0.13
    113 H           0.7610    2.6663   -2.9362 H       2  LIG2          0.14
    114 H          -0.7061    2.7577   -3.8864 H       2  LIG2       0.16000000000000003
    115 H          -0.9117    4.4944   -2.2947 H       2  LIG2          0.14
    116 H          -0.3783    3.5003   -0.9558 H       2  LIG2       0.15000000000000002
    117 H           3.1318   -1.6127   -3.3911 H       2  LIG2          0.14
    118 H           2.3722   -0.9963   -4.8474 H       2  LIG2       0.15000000000000002
    119 H          -1.8808   -0.9458   -0.2812 H       2  LIG2       0.15000000000000002
    120 H          -2.7150   -1.1162   -1.7992 H       2  LIG2       0.15000000000000002
    121 H          -4.4720    2.4366    0.9352 H       2  LIG2       0.15000000000000002
    122 H          -5.7847    1.8527   -0.0721 H       2  LIG2          0.14
    123 H          -4.2050    0.9497   -1.7353 H       2  LIG2          0.13
    124 H          -3.8890    0.2556   -0.1461 H       2  LIG2          0.14
    125 H           2.2217    0.9066   -3.3422 H       2  LIG2          0.14
    126 H           1.7632   -0.1301   -1.9903 H       2  LIG2       0.15000000000000002
    127 H           0.2584   -1.5294   -1.2277 H       2  LIG2          0.14
    128 H          -0.8971   -2.7556   -1.7237 H       2  LIG2          0.13
    129 H           0.5652   -2.7520   -5.7393 H       2  LIG2          0.12
    130 H           1.2496   -2.9052   -2.7936 H       2  LIG2          0.12
    131 H          -2.8302    2.7875   -2.5772 H       2  LIG2          0.12
    132 H          -5.4029    4.2830   -0.3929 H       2  LIG2           0.13
@<TRIPOS>BOND
     1   109    27    1
     2   129    38    1
     3   110    27    1
     4    77     9    1
     5    60     4    1
     6    27    38    1
     7    27    25    1
     8    74     8    1
     9    75     9    1
    10    76     9    1
    11   108    26    1
    12     9    48    1
    13    38     4    1
    14    38    39    1
    15   118    31    1
    16   106    25    1
    17     4    62    1
    18     4    61    1
    19   112    28    1
    20   111    28    1
    21    25    26    1
    22    25   107    1
    23     8    73    1
    24     8    72    1
    25     8    47    1
    26    26    37    2
    27    56     2    1
    28    28    44    1
    29   114    29    1
    30    31    39    1
    31    31   117    1
    32    31    35    1
    33    39    47    1
    34    39   130    1
    35    48    47    1
    36    48    35    1
    37    48    41    1
    38   125    35    1
    39    47    36    1
    40    63     5    1
    41    35   126    1
    42     2    37    1
    43     2    54    1
    44     2    55    1
    45    37     3    1
    46   113    29    1
    47    29    41    1
    48    29    30    1
    49    44    50    1
    50    44    49    2
    51    41    40    2
    52   131    42    1
    53   115    30    1
    54    50    43    1
    55    65     5    1
    56     5    64    1
    57     5    45    1
    58    30    42    1
    59    30   116    1
    60    36   128    1
    61    36    32    1
    62    36   127    1
    63   120    32    1
    64   123    34    1
    65    40    32    1
    66    40    46    1
    67    42    45    1
    68    42    46    1
    69     3    57    1
    70     3    59    1
    71     3    58    1
    72    32   119    1
    73   104    24    1
    74    45    43    1
    75    45     6    1
    76    43   132    1
    77    43    33    1
    78    46    34    1
    79    46     7    1
    80   102    23    1
    81    24   105    1
    82    24    23    1
    83    34   124    1
    84    34    33    1
    85   103    23    1
    86    23    22    1
    87    33   122    1
    88    33   121    1
    89    66     6    1
    90     6    67    1
    91     6    68    1
    92    71     7    1
    93     7    70    1
    94     7    69    1
    95    22   100    1
    96    22   101    1
    97    22    21    1
    98    99    21    1
    99    98    21    1
   100    21    20    1
   101    93    18    1
   102    94    19    1
   103    20    96    1
   104    20    19    1
   105    20    97    1
   106    18    19    1
   107    18    17    2
   108    19    95    1
   109    92    17    1
   110    17    16    1
   111    16    91    1
   112    16    90    1
   113    16    15    1
   114    84    13    1
   115    86    14    1
   116    15    88    1
   117    15    14    1
   118    15    89    1
   119    13    14    1
   120    13    85    1
   121    13    12    1
   122    14    87    1
   123    82    12    1
   124    83    12    1
   125    12    11    1
   126    51     1    1
   127    78    10    1
   128    11    80    1
   129    11    10    1
   130    11    81    1
   131    10     1    1
   132    10    79    1
   133     1    52    1
   134     1    53    1
