@<TRIPOS>MOLECULE
DLFVBJFMPXGRIB-UHFFFAOYSA-N	6044458	-209.15078507907538
 9 8 0 0 0
SMALL
MULLIKEN NwChem

@<TRIPOS>ATOM
      1 C           0.4602    0.2493   -1.3123 C.3     1  LIG1      -0.5099999999999998
      2 C          -0.0781    0.0703    0.0839 C.3     1  LIG1       0.4900000000000002
      3 N          -0.8040    0.8464    0.7840 N.3     1  LIG1      -0.7000000000000002
      4 O           0.3181   -1.1204    0.6027 O.3     1  LIG1      -0.5999999999999996
      5 H           0.1249    1.1930   -1.7485 H       1  LIG1       0.18999999999999995
      6 H           0.1308   -0.5801   -1.9472 H       1  LIG1       0.18999999999999995
      7 H           1.5554    0.2295   -1.2934 H       1  LIG1       0.18999999999999995
      8 H          -1.0259    1.7014    0.2741 H       1  LIG1       0.31999999999999995
      9 H          -0.0645   -1.1576    1.4992 H       1  LIG1       0.43000000000000005
@<TRIPOS>BOND
     1     6     1    1
     2     5     1    1
     3     1     7    1
     4     1     2    1
     5     2     4    1
     6     2     3    1
     7     8     3    1
     8     4     9    1
