@<TRIPOS>MOLECULE
DLKZGMNZEDNHKO-BXTBVDPRSA-L	6044460	-607.347159371185
 15 14 0 0 0
SMALL
MULLIKEN NwChem

@<TRIPOS>ATOM
      1 C          -0.5714   -0.1254   -0.1482 C.2     1  LIG1      -0.2400000000000002
      2 C          -1.2566   -0.9695   -0.9583 C.2     1  LIG1       -0.1900000000000004
      3 C           1.2618    1.1220    1.0969 C.3     1  LIG1       -0.3600000000000003
      4 C           0.8915    0.1260    0.1019 C.2     1  LIG1       0.40000000000000036
      5 C          -0.9687   -2.0771   -2.0097 C.2     1  LIG1       0.46999999999999975
      6 C           0.5834    1.9949    1.9627 C.2     1  LIG1       0.5300000000000002
      7 O           1.7906   -0.4833   -0.5099 O.2     1  LIG1      -0.6699999999999999
      8 O          -2.0523   -2.5629   -2.4706 O.co2   1  LIG1      -0.6899999999999995
      9 O           0.2053   -2.3892   -2.3063 O.co2   1  LIG1      -0.6699999999999999
     10 O           1.0919    2.8095    2.7746 O.2     1  LIG1      -0.6699999999999999
     11 O          -0.8336    1.9962    1.9578 O.3     1  LIG1      -0.6500000000000004
     12 H          -1.2025    0.5158    0.4629 H       1  LIG1       0.15000000000000002
     13 H          -2.3442   -0.8674   -0.8658 H       1  LIG1       0.10999999999999999
     14 H           2.3419    1.2163    1.1947 H       1  LIG1       0.07999999999999996
     15 H          -0.9945    2.6782    2.6333 H       1  LIG1            0.4
@<TRIPOS>BOND
     1     8     5   ar
     2     9     5   ar
     3     5     2    1
     4     2    13    1
     5     2     1    2
     6     7     4    2
     7     1     4    1
     8     1    12    1
     9     4     3    1
    10     3    14    1
    11     3     6    1
    12    11     6    1
    13    11    15    1
    14     6    10    2
