@<TRIPOS>MOLECULE
DMFODUNDODUQKK-UAKXSSHOSA-J	11152528	-2667.4379668515153
 42 43 0 0 0
SMALL
MULLIKEN NwChem

@<TRIPOS>ATOM
      1 C           5.3631    0.7960    0.1278 C.3     1  LIG1       -0.16000000000000014
      2 C           0.5895    0.4605   -0.0573 C.3     1  LIG1       -0.08000000000000007
      3 C           6.6590    1.2755    0.3171 C.2     1  LIG1       0.33000000000000007
      4 C           1.4952   -0.5755   -0.7302 C.3     1  LIG1       0.13999999999999968
      5 C           1.6044   -1.9240    0.0189 C.3     1  LIG1       0.07000000000000028
      6 C           3.0544   -1.8955    0.5621 C.3     1  LIG1       0.09999999999999964
      7 C           7.7303    0.2083    0.1490 C.2     1  LIG1       0.3200000000000003
      8 C           3.7577   -1.0547   -0.5246 C.3     1  LIG1       0.2699999999999996
      9 C           6.1129   -1.4968   -0.2348 C.2     1  LIG1       0.6600000000000001
     10 N           8.9996    0.5480    0.2362 N.pl3   1  LIG1      -0.8099999999999996
     11 N           7.3759   -1.1176   -0.0768 N.am    1  LIG1       -0.6699999999999999
     12 N           5.0820   -0.5670   -0.1820 N.am    1  LIG1      -0.4800000000000004
     13 O           6.9561    2.4866    0.5991 O.2     1  LIG1      -0.8100000000000005
     14 O           1.4973   -3.0302   -0.8711 O.3     1  LIG1      -0.7100000000000009
     15 O           3.5742   -3.2012    0.6777 O.3     1  LIG1      -0.7300000000000004
     16 O           5.7864   -2.7427   -0.4497 O.2     1  LIG1      -0.7400000000000002
     17 O          -7.5614    1.4615    0.6054 O.3     1  LIG1        -0.75
     18 O          -6.0888    2.0678    2.6651 O.3     1  LIG1      -0.6799999999999997
     19 O          -7.4201   -0.1982    2.5479 O.2     1  LIG1      -0.6699999999999999
     20 O          -2.2980   -0.4429   -2.0748 O.3     1  LIG1      -0.7200000000000006
     21 O          -1.3718    1.9624   -1.6850 O.2     1  LIG1      -0.6199999999999992
     22 O          -5.4284    1.7324   -1.0391 O.3     1  LIG1      -0.6799999999999997
     23 O          -4.6896   -0.7724   -1.2793 O.2     1  LIG1      -0.6999999999999993
     24 O          -0.7844    0.0328   -0.0636 O.3     1  LIG1      -0.5399999999999991
     25 O           2.8203   -0.0040   -0.7805 O.3     1  LIG1      -0.5600000000000005
     26 O          -5.3602    0.1723    1.0133 O.3     1  LIG1      -0.6400000000000006
     27 O          -3.1529    0.8711   -0.0728 O.3     1  LIG1      -0.6400000000000006
     28 P          -6.6706    0.9230    1.8856 P.3     1  LIG1       1.0600000000000005
     29 P          -1.8860    0.7134   -1.0598 P.3     1  LIG1       1.1899999999999995
     30 P          -4.7861    0.5019   -0.4441 P.3     1  LIG1          1.17
     31 H           4.5002    1.4460    0.1853 H       1  LIG1       0.10999999999999999
     32 H           0.8855    0.5788    0.9918 H       1  LIG1       0.18000000000000005
     33 H           0.6938    1.4235   -0.5636 H       1  LIG1       0.18000000000000005
     34 H           1.1264   -0.7708   -1.7472 H       1  LIG1       0.16000000000000003
     35 H           0.8387   -1.9969    0.8054 H       1  LIG1       0.15000000000000002
     36 H           3.1082   -1.3388    1.5118 H       1  LIG1          0.14
     37 H           3.8525   -1.6948   -1.4167 H       1  LIG1          0.14
     38 H           9.4995   -0.3455    0.0856 H       1  LIG1       0.22999999999999998
     39 H           2.2550   -3.5845   -0.5698 H       1  LIG1       0.42000000000000004
     40 H           4.5321   -3.1176    0.2485 H       1  LIG1       0.43999999999999995
     41 H          -3.2671   -0.7361   -1.8585 H       1  LIG1          0.48
     42 H          -6.9166    1.7975   -0.0704 H       1  LIG1       0.44999999999999996
@<TRIPOS>BOND
     1    20    41    1
     2    20    29    1
     3    34     4    1
     4    21    29    2
     5    37     8    1
     6    23    30    2
     7    29    27    1
     8    29    24    1
     9    22    30    1
    10    14    39    1
    11    14     5    1
    12    25     4    1
    13    25     8    1
    14     4     2    1
    15     4     5    1
    16    33     2    1
    17     8    12    1
    18     8     6    1
    19    16     9    2
    20    30    27    1
    21    30    26    1
    22     9    12   am
    23     9    11    1
    24    12     1    1
    25    11     7    2
    26    42    17    1
    27    24     2    1
    28     2    32    1
    29     5     6    1
    30     5    35    1
    31    38    10    1
    32     1    31    1
    33     1     3    1
    34     7    10    1
    35     7     3    1
    36    40    15    1
    37     3    13    2
    38     6    15    1
    39     6    36    1
    40    17    28    1
    41    26    28    1
    42    28    19    2
    43    28    18    1
