@<TRIPOS>MOLECULE
DMZOKBALNZWDKI-MATMFAIHSA-J	11152526	-4325.774563442193
 97 100 0 0 0
SMALL
MULLIKEN NwChem

@<TRIPOS>ATOM
      1 C           0.7216    0.4792    0.7174 C.3     1  LIG1      -0.45999999999999996
      2 C           2.4640   -0.5707   -0.7685 C.3     1  LIG1      -0.4800000000000004
      3 C          17.0359    1.7326   -1.6299 C.2     1  LIG1      -0.20000000000000018
      4 C          16.6673    2.3387    0.6721 C.2     1  LIG1      -0.20999999999999996
      5 C          14.7650    1.3508   -0.5747 C.2     1  LIG1      -0.1900000000000004
      6 C          18.3409    2.1627   -1.5400 C.2     1  LIG1        -0.25
      7 C          17.9708    2.7756    0.7833 C.2     1  LIG1      -0.2599999999999998
      8 C          14.0849    0.7923   -1.6166 C.2     1  LIG1      -0.2400000000000002
      9 C           5.9829   -1.8306   -0.0588 C.3     1  LIG1       -0.33000000000000007
     10 C           4.9741   -1.9395    1.1013 C.3     1  LIG1       -0.1200000000000001
     11 C           8.8169    0.6061   -0.2789 C.3     1  LIG1       -0.11000000000000032
     12 C          10.0721   -0.2420   -0.5725 C.3     1  LIG1       -0.41999999999999993
     13 C          -7.0226   -2.2549   -0.3201 C.3     1  LIG1       -0.08999999999999986
     14 C           0.3312   -1.7600   -0.3886 C.3     1  LIG1       -0.09999999999999964
     15 C         -10.0420    4.5533    1.6085 C.ar    1  LIG1       0.16000000000000014
     16 C          -7.4078    2.0657   -0.8111 C.ar    1  LIG1       0.20000000000000018
     17 C          16.1347    1.7977   -0.5298 C.3     1  LIG1       0.1200000000000001
     18 C          18.9113    2.7183   -0.3213 C.2     1  LIG1       0.41000000000000014
     19 C          -8.1849   -1.7352    0.5201 C.3     1  LIG1       0.13999999999999968
     20 C           7.2531   -1.0182    0.2918 C.2     1  LIG1           0.5
     21 C          12.6961    0.3198   -1.6422 C.2     1  LIG1       0.2400000000000002
     22 C          -8.1247    3.9492   -0.1309 C.ar    1  LIG1       0.1900000000000004
     23 C          -9.5895   -0.3106   -0.7984 C.3     1  LIG1       0.1299999999999999
     24 C          -9.5266   -1.7489   -0.2292 C.3     1  LIG1       0.019999999999999574
     25 C           1.9888   -1.5563    1.5390 C.3     1  LIG1       0.05999999999999961
     26 C          -8.3795    5.2909    0.1977 C.ar    1  LIG1       0.45999999999999996
     27 C          -8.9247    2.9933    0.5087 C.ar    1  LIG1          0.54
     28 C           2.7379   -2.8909    1.1579 C.2     1  LIG1       0.45999999999999996
     29 C          -8.9993    0.4787    0.3831 C.3     1  LIG1       0.28000000000000025
     30 C           1.3726   -0.8438    0.2851 C.3     1  LIG1       0.08000000000000007
     31 N          -7.6750    6.3183   -0.3814 N.pl3   1  LIG1      -0.7800000000000002
     32 N           7.6129   -0.1236   -0.6320 N.am    1  LIG1      -0.6200000000000001
     33 N           4.0058   -3.0102    0.9004 N.am    1  LIG1      -0.5999999999999996
     34 N          -9.3511    5.5823    1.0800 N.ar    1  LIG1        -0.54
     35 N          -9.9032    3.2447    1.3892 N.ar    1  LIG1      -0.5300000000000002
     36 N          -7.1793    3.3524   -0.9452 N.ar    1  LIG1      -0.5700000000000003
     37 N          -8.4574    1.7776    0.0530 N.ar    1  LIG1      -0.5300000000000002
     38 O          20.1090    3.1106   -0.2387 O.2     1  LIG1      -0.7300000000000004
     39 O           7.8356   -1.2909    1.3858 O.2     1  LIG1      -0.7200000000000006
     40 O          12.2483   -0.2523   -2.6337 O.2     1  LIG1      -0.5500000000000007
     41 O         -10.8257    0.1862   -1.1855 O.3     1  LIG1      -0.7200000000000006
     42 O           0.9441   -1.9167    2.4383 O.3     1  LIG1      -0.7100000000000009
     43 O           1.8827   -3.8651    1.1166 O.2     1  LIG1      -0.7200000000000006
     44 O         -12.8781   -2.8536    1.3113 O.3     1  LIG1      -0.6600000000000001
     45 O         -11.3656   -4.1966   -0.2955 O.3     1  LIG1      -0.7200000000000006
     46 O         -12.3128   -2.0086   -1.1594 O.2     1  LIG1      -0.7100000000000009
     47 O          -5.2914    0.1437    1.4599 O.3     1  LIG1      -0.6699999999999999
     48 O          -5.0679   -0.1396   -1.1468 O.2     1  LIG1      -0.6400000000000006
     49 O          -2.2280   -0.1812   -1.4535 O.3     1  LIG1      -0.6799999999999997
     50 O          -2.7486   -2.7429   -1.4298 O.2     1  LIG1      -0.5899999999999999
     51 O          -5.7780   -2.1172    0.3834 O.3     1  LIG1      -0.5399999999999991
     52 O          -1.0180   -1.6118    0.2420 O.3     1  LIG1      -0.5199999999999996
     53 O          -7.9366   -0.3456    0.8805 O.3     1  LIG1      -0.5700000000000003
     54 O         -10.5605   -1.9826    0.7133 O.3     1  LIG1      -0.5999999999999996
     55 O          -3.4224   -1.2029    0.5726 O.3     1  LIG1      -0.5899999999999999
     56 P         -11.9674   -2.7049    0.1380 P.3     1  LIG1       1.0999999999999996
     57 P          -4.9063   -0.7662    0.2019 P.3     1  LIG1       1.2400000000000002
     58 P          -2.3055   -1.5750   -0.6370 P.3     1  LIG1       1.2200000000000006
     59 S          11.6757    0.6281   -0.1609 S.3     1  LIG1          0.0
     60 H           1.4970    1.1780    1.0561 H       1  LIG1       0.15000000000000002
     61 H           0.1718    0.9503   -0.1095 H       1  LIG1       0.15000000000000002
     62 H           0.0259    0.3000    1.5408 H       1  LIG1       0.15000000000000002
     63 H           2.9159   -1.5010   -1.1254 H       1  LIG1       0.16000000000000003
     64 H           3.2756    0.0208   -0.3339 H       1  LIG1       0.16000000000000003
     65 H           2.0542   -0.0122   -1.6224 H       1  LIG1       0.15000000000000002
     66 H          16.6765    1.3262   -2.5751 H       1  LIG1          0.14
     67 H          16.0057    2.4049    1.5382 H       1  LIG1          0.14
     68 H          14.2157    1.4750    0.3602 H       1  LIG1       0.16000000000000003
     69 H          19.0070    2.0991   -2.4006 H       1  LIG1       0.09999999999999998
     70 H          18.3433    3.1843    1.7223 H       1  LIG1       0.09999999999999998
     71 H          14.5824    0.6214   -2.5703 H       1  LIG1          0.14
     72 H           5.5078   -1.4153   -0.9566 H       1  LIG1       0.10999999999999999
     73 H           6.2928   -2.8583   -0.3030 H       1  LIG1       0.10999999999999999
     74 H           5.5764   -2.1616    1.9959 H       1  LIG1       0.09999999999999998
     75 H           4.5429   -0.9350    1.2768 H       1  LIG1       0.10999999999999999
     76 H           8.8487    0.8898    0.7903 H       1  LIG1       0.09999999999999998
     77 H           8.8805    1.5337   -0.8738 H       1  LIG1       0.09999999999999998
     78 H          10.0242   -1.1432    0.0415 H       1  LIG1       0.18000000000000005
     79 H          10.1400   -0.5085   -1.6300 H       1  LIG1       0.17000000000000004
     80 H          -6.9643   -1.7347   -1.2813 H       1  LIG1       0.19999999999999996
     81 H          -7.1562   -3.3252   -0.5021 H       1  LIG1       0.20999999999999996
     82 H           0.6120   -2.8080   -0.2614 H       1  LIG1       0.19999999999999996
     83 H           0.2226   -1.4962   -1.4464 H       1  LIG1       0.18999999999999995
     84 H         -10.8170    4.8341    2.3201 H       1  LIG1       0.17000000000000004
     85 H          -6.8150    1.2782   -1.2605 H       1  LIG1          0.24
     86 H          -8.2650   -2.3077    1.4480 H       1  LIG1       0.18999999999999995
     87 H          -8.8588   -0.2525   -1.6277 H       1  LIG1       0.16000000000000003
     88 H          -9.5409   -2.5052   -1.0231 H       1  LIG1       0.19999999999999996
     89 H           2.6464   -0.8348    2.0385 H       1  LIG1          0.12
     90 H          -9.7707    0.6341    1.1422 H       1  LIG1       0.18999999999999995
     91 H          -6.7837    6.0556   -0.7829 H       1  LIG1          0.37
     92 H          -7.6867    7.1877    0.1348 H       1  LIG1          0.37
     93 H         -11.4787   -0.5743   -1.2122 H       1  LIG1       0.44999999999999996
     94 H           0.8740   -2.8794    2.1822 H       1  LIG1           0.4
     95 H         -11.3896   -4.7338    0.5118 H       1  LIG1       0.44999999999999996
     96 H          -6.2757    0.1728    1.5046 H       1  LIG1          0.49
     97 H          -3.1218    0.0138   -1.8071 H       1  LIG1           0.48
@<TRIPOS>BOND
     1    40    21    2
     2    66     3    1
     3    71     8    1
     4    69     6    1
     5    97    49    1
     6    21     8    1
     7    21    59    1
     8    79    12    1
     9     3     6    2
    10     3    17    1
    11    87    23    1
    12    65     2    1
    13     8     5    2
    14     6    18    1
    15    49    58    1
    16    83    14    1
    17    50    58    2
    18    80    13    1
    19    85    16    1
    20    93    41    1
    21    41    23    1
    22    46    56    2
    23    48    57    2
    24    63     2    1
    25    88    24    1
    26    72     9    1
    27    36    16   ar
    28    36    22   ar
    29    77    11    1
    30    16    37   ar
    31    23    24    1
    32    23    29    1
    33    91    31    1
    34     2    64    1
    35     2    30    1
    36    58    52    1
    37    58    55    1
    38    32    11    1
    39    32    20   am
    40     5    17    1
    41     5    68    1
    42    12    11    1
    43    12    59    1
    44    12    78    1
    45    17     4    1
    46    81    13    1
    47    14    82    1
    48    14    52    1
    49    14    30    1
    50    31    92    1
    51    31    26    1
    52    18    38    2
    53    18     7    1
    54    13    51    1
    55    13    19    1
    56    73     9    1
    57    45    56    1
    58    45    95    1
    59    11    76    1
    60    24    19    1
    61    24    54    1
    62    22    26   ar
    63    22    27   ar
    64    61     1    1
    65     9    20    1
    66     9    10    1
    67    37    29    1
    68    37    27   ar
    69    56    54    1
    70    56    44    1
    71    26    34   ar
    72    57    51    1
    73    57    55    1
    74    57    47    1
    75    30     1    1
    76    30    25    1
    77    20    39    2
    78    29    53    1
    79    29    90    1
    80    27    35   ar
    81    19    53    1
    82    19    86    1
    83     4     7    2
    84     4    67    1
    85     1    60    1
    86     1    62    1
    87     7    70    1
    88    33    10    1
    89    33    28   am
    90    34    15   ar
    91    10    75    1
    92    10    74    1
    93    43    28    2
    94    28    25    1
    95    35    15   ar
    96    47    96    1
    97    25    89    1
    98    25    42    1
    99    15    84    1
   100    94    42    1
