@<TRIPOS>MOLECULE
DNVPQKQSNYMLRS-APGDWVJJSA-N	6044465	-1168.106612190279
 73 76 0 0 0
SMALL
MULLIKEN NwChem

@<TRIPOS>ATOM
      1 C           4.6604   -3.5006   -0.7350 C.3     1  LIG1      -0.45999999999999996
      2 C           5.2186   -1.2922   -1.7947 C.3     1  LIG1      -0.45999999999999996
      3 C           2.1083   -2.2686    0.4073 C.3     1  LIG1      -0.4800000000000004
      4 C           3.0317    2.5223   -2.9334 C.3     1  LIG1      -0.46999999999999975
      5 C          -0.7326   -1.1499    2.9407 C.3     1  LIG1         -0.5
      6 C          -0.5511    4.4280   -0.3149 C.3     1  LIG1      -0.4900000000000002
      7 C           2.7711   -0.0980   -0.6748 C.2     1  LIG1      -0.11000000000000032
      8 C           2.1522    0.6433   -1.5981 C.2     1  LIG1      -0.11000000000000032
      9 C          -1.8272   -1.7162   -0.5478 C.3     1  LIG1      -0.21999999999999975
     10 C          -1.6732   -0.4033   -1.1682 C.2     1  LIG1      -0.2400000000000002
     11 C          -0.1117    2.3100   -2.9241 C.3     1  LIG1      -0.29000000000000004
     12 C          -1.5450    2.3604   -2.3768 C.3     1  LIG1      -0.2999999999999998
     13 C          -4.1086   -1.2490    1.9900 C.3     1  LIG1      -0.2999999999999998
     14 C          -0.4543    1.6858    1.7016 C.3     1  LIG1      -0.29000000000000004
     15 C          -2.9864   -0.1995    2.1931 C.3     1  LIG1      -0.3200000000000003
     16 C           0.5236    2.5018    0.8430 C.3     1  LIG1      -0.3099999999999996
     17 C          -2.4382   -3.1006    1.4442 C.3     1  LIG1      -0.3600000000000003
     18 C           4.4324   -1.9822   -0.6684 C.3     1  LIG1      -0.07000000000000028
     19 C           2.9232   -1.6016   -0.7164 C.3     1  LIG1      -0.11000000000000032
     20 C           2.1784    2.1529   -1.6971 C.3     1  LIG1      -0.13999999999999968
     21 C          -1.8332   -1.8855    0.7915 C.3     1  LIG1      0.15000000000000036
     22 C          -3.6752   -2.6838    2.3214 C.3     1  LIG1       0.1299999999999999
     23 C          -1.2793    0.6600   -0.4436 C.2     1  LIG1      0.16999999999999993
     24 C           0.8024    2.8733   -1.7944 C.3     1  LIG1      -0.08999999999999986
     25 C          -1.3766    2.1093   -0.8704 C.3     1  LIG1      -0.1900000000000004
     26 C          -0.7507    0.3768    0.9554 C.3     1  LIG1      -0.1900000000000004
     27 C          -1.5738   -0.7008    1.7211 C.3     1  LIG1      0.05999999999999961
     28 C          -0.1112    2.9579   -0.5004 C.3     1  LIG1      0.1200000000000001
     29 O          -3.4407   -2.8642    3.7236 O.3     1  LIG1      -0.6799999999999997
     30 H           4.2016   -3.9221   -1.6393 H       1  LIG1          0.14
     31 H           4.2450   -4.0267    0.1297 H       1  LIG1       0.15000000000000002
     32 H           5.7325   -3.7267   -0.7722 H       1  LIG1          0.14
     33 H           4.8411   -1.6079   -2.7765 H       1  LIG1          0.14
     34 H           5.1316   -0.2027   -1.7452 H       1  LIG1       0.15000000000000002
     35 H           6.2821   -1.5536   -1.7456 H       1  LIG1          0.14
     36 H           2.4404   -1.9182    1.3937 H       1  LIG1       0.15000000000000002
     37 H           1.0456   -2.0345    0.3008 H       1  LIG1       0.15000000000000002
     38 H           2.2048   -3.3587    0.3890 H       1  LIG1       0.15000000000000002
     39 H           2.5710    2.1471   -3.8551 H       1  LIG1       0.15000000000000002
     40 H           3.1365    3.6099   -3.0303 H       1  LIG1       0.15000000000000002
     41 H           4.0326    2.0838   -2.8593 H       1  LIG1       0.15000000000000002
     42 H          -0.5807   -0.3169    3.6349 H       1  LIG1       0.16000000000000003
     43 H          -1.2088   -1.9591    3.4979 H       1  LIG1          0.14
     44 H           0.2518   -1.5093    2.6222 H       1  LIG1       0.15000000000000002
     45 H           0.3218    5.0689   -0.1415 H       1  LIG1          0.14
     46 H          -1.0800    4.8214   -1.1897 H       1  LIG1       0.15000000000000002
     47 H          -1.2159    4.5276    0.5526 H       1  LIG1          0.14
     48 H           3.2658    0.3973    0.1660 H       1  LIG1          0.13
     49 H           1.6832    0.1212   -2.4325 H       1  LIG1          0.13
     50 H          -2.1027   -2.5517   -1.1899 H       1  LIG1          0.13
     51 H          -1.9933   -0.3025   -2.2017 H       1  LIG1          0.13
     52 H           0.1437    1.2688   -3.1394 H       1  LIG1       0.15000000000000002
     53 H           0.0002    2.8638   -3.8621 H       1  LIG1          0.14
     54 H          -1.9819    3.3532   -2.5305 H       1  LIG1          0.14
     55 H          -2.2168    1.6503   -2.8678 H       1  LIG1          0.14
     56 H          -4.4211   -1.2292    0.9398 H       1  LIG1       0.15000000000000002
     57 H          -4.9870   -0.9862    2.5916 H       1  LIG1       0.15000000000000002
     58 H           0.0032    1.4820    2.6748 H       1  LIG1          0.14
     59 H          -1.3745    2.2527    1.8992 H       1  LIG1          0.14
     60 H          -2.9308    0.1129    3.2451 H       1  LIG1       0.15000000000000002
     61 H          -3.2643    0.7001    1.6330 H       1  LIG1       0.15000000000000002
     62 H           1.3959    1.8680    0.6736 H       1  LIG1       0.15000000000000002
     63 H           0.8824    3.3769    1.3988 H       1  LIG1          0.13
     64 H          -2.7578   -3.8110    0.6732 H       1  LIG1       0.15000000000000002
     65 H          -1.7395   -3.6326    2.1002 H       1  LIG1       0.15000000000000002
     66 H           4.8277   -1.6209    0.2948 H       1  LIG1          0.12
     67 H           2.5256   -1.9593   -1.6787 H       1  LIG1          0.12
     68 H           2.7029    2.5468   -0.8165 H       1  LIG1          0.13
     69 H          -4.4999   -3.3687    2.0955 H       1  LIG1          0.14
     70 H           1.0570    3.9090   -2.0540 H       1  LIG1          0.12
     71 H          -2.2396    2.5208   -0.3226 H       1  LIG1          0.14
     72 H           0.2305   -0.0957    0.7926 H       1  LIG1       0.15000000000000002
     73 H          -3.1383   -2.0216    4.0914 H       1  LIG1       0.43000000000000005
@<TRIPOS>BOND
     1    53    11    1
     2    39     4    1
     3    52    11    1
     4    40     4    1
     5     4    41    1
     6     4    20    1
     7    11    12    1
     8    11    24    1
     9    55    12    1
    10    33     2    1
    11    54    12    1
    12    49     8    1
    13    12    25    1
    14    51    10    1
    15    70    24    1
    16     2    35    1
    17     2    34    1
    18     2    18    1
    19    24    20    1
    20    24    28    1
    21    20     8    1
    22    20    68    1
    23    67    19    1
    24    30     1    1
    25     8     7    2
    26    50     9    1
    27    46     6    1
    28    10     9    1
    29    10    23    2
    30    25    28    1
    31    25    23    1
    32    25    71    1
    33    32     1    1
    34     1    18    1
    35     1    31    1
    36    19     7    1
    37    19    18    1
    38    19     3    1
    39     7    48    1
    40    18    66    1
    41     9    21    1
    42    28     6    1
    43    28    16    1
    44    23    26    1
    45     6    45    1
    46     6    47    1
    47    37     3    1
    48    38     3    1
    49     3    36    1
    50    64    17    1
    51    62    16    1
    52    21    17    1
    53    21    27    1
    54    72    26    1
    55    16    63    1
    56    16    14    1
    57    56    13    1
    58    26    14    1
    59    26    27    1
    60    17    65    1
    61    17    22    1
    62    61    15    1
    63    14    59    1
    64    14    58    1
    65    27    15    1
    66    27     5    1
    67    13    15    1
    68    13    22    1
    69    13    57    1
    70    69    22    1
    71    15    60    1
    72    22    29    1
    73    44     5    1
    74     5    43    1
    75     5    42    1
    76    29    73    1
