@<TRIPOS>MOLECULE
DNXHEGUUPJUMQT-CBZIJGRNSA-N	6044466	-849.3399831453459
 42 45 0 0 0
SMALL
MULLIKEN NwChem

@<TRIPOS>ATOM
      1 C           2.7852    1.5672    0.2281 C.3     1  LIG1      -0.4900000000000002
      2 C          -0.9568   -1.6066   -1.9754 C.3     1  LIG1      -0.34999999999999964
      3 C          -1.6398   -3.4442    1.8793 C.ar    1  LIG1      -0.20000000000000018
      4 C          -0.8230   -0.0816   -1.9644 C.3     1  LIG1      -0.28000000000000025
      5 C          -1.2191   -2.1216    1.8064 C.ar    1  LIG1      -0.23000000000000043
      6 C           1.0165    2.5321   -2.0703 C.3     1  LIG1      -0.2999999999999998
      7 C           1.4678    3.9054   -1.5172 C.3     1  LIG1       -0.3700000000000001
      8 C           0.3001    0.4466    1.7396 C.3     1  LIG1      -0.2999999999999998
      9 C           0.7275    1.9279    1.6672 C.3     1  LIG1      -0.28000000000000025
     10 C          -1.6304   -3.5338   -0.5281 C.ar    1  LIG1      -0.28000000000000025
     11 C          -1.2031   -2.2019   -0.5999 C.ar    1  LIG1      0.09999999999999964
     12 C          -1.8481   -4.1603    0.6980 C.ar    1  LIG1       0.33999999999999986
     13 C          -0.9859   -1.4700    0.5836 C.ar    1  LIG1      0.09999999999999964
     14 C          -0.5670    0.0004    0.5368 C.3     1  LIG1      -0.16000000000000014
     15 C           0.0976    0.3548   -0.8215 C.3     1  LIG1      -0.09999999999999964
     16 C           0.4243    1.8459   -0.8239 C.3     1  LIG1      -0.11000000000000032
     17 C           1.6336    3.7119    0.0043 C.2     1  LIG1       0.4500000000000002
     18 C           1.3881    2.2359    0.3218 C.3     1  LIG1       0.009999999999999787
     19 O          -2.2657   -5.4598    0.8077 O.3     1  LIG1      -0.6899999999999995
     20 O           1.9075    4.5834    0.8004 O.2     1  LIG1      -0.5299999999999994
     21 H           3.2840    1.7690   -0.7255 H       1  LIG1       0.17000000000000004
     22 H           2.7275    0.4820    0.3454 H       1  LIG1       0.18000000000000005
     23 H           3.4229    1.9622    1.0261 H       1  LIG1       0.16000000000000003
     24 H          -1.7558   -1.9166   -2.6610 H       1  LIG1       0.16000000000000003
     25 H          -0.0295   -2.0397   -2.3805 H       1  LIG1       0.16000000000000003
     26 H          -1.8127   -3.9323    2.8331 H       1  LIG1       0.15000000000000002
     27 H          -1.8090    0.3869   -1.8323 H       1  LIG1          0.14
     28 H          -0.4354    0.2618   -2.9310 H       1  LIG1          0.14
     29 H          -1.0715   -1.5851    2.7377 H       1  LIG1       0.15000000000000002
     30 H           1.8668    1.9631   -2.4643 H       1  LIG1       0.16000000000000003
     31 H           0.2892    2.6269   -2.8820 H       1  LIG1       0.15000000000000002
     32 H           0.7048    4.6783   -1.6705 H       1  LIG1       0.18999999999999995
     33 H           2.3954    4.2909   -1.9537 H       1  LIG1       0.18999999999999995
     34 H           1.1813   -0.2040    1.8061 H       1  LIG1          0.14
     35 H          -0.2542    0.3003    2.6726 H       1  LIG1       0.15000000000000002
     36 H           1.4004    2.1725    2.4969 H       1  LIG1          0.14
     37 H          -0.1571    2.5688    1.7837 H       1  LIG1          0.14
     38 H          -1.7947   -4.0888   -1.4520 H       1  LIG1       0.15000000000000002
     39 H          -1.4907    0.6043    0.5819 H       1  LIG1          0.14
     40 H           1.0333   -0.2178   -0.9119 H       1  LIG1          0.13
     41 H          -0.5240    2.3721   -0.6126 H       1  LIG1          0.13
     42 H          -2.3716   -5.8320   -0.0814 H       1  LIG1       0.44999999999999996
@<TRIPOS>BOND
     1    28     4    1
     2    31     6    1
     3    24     2    1
     4    30     6    1
     5    25     2    1
     6     6     7    1
     7     6    16    1
     8     2     4    1
     9     2    11    1
    10     4    27    1
    11     4    15    1
    12    33     7    1
    13    32     7    1
    14     7    17    1
    15    38    10    1
    16    40    15    1
    17    16    15    1
    18    16    41    1
    19    16    18    1
    20    15    14    1
    21    21     1    1
    22    11    10   ar
    23    11    13   ar
    24    10    12   ar
    25    42    19    1
    26    17    18    1
    27    17    20    2
    28     1    18    1
    29     1    22    1
    30     1    23    1
    31    18     9    1
    32    14    39    1
    33    14    13    1
    34    14     8    1
    35    13     5   ar
    36    12    19    1
    37    12     3   ar
    38     9     8    1
    39     9    37    1
    40     9    36    1
    41     8    34    1
    42     8    35    1
    43     5     3   ar
    44     5    29    1
    45     3    26    1
