@<TRIPOS>MOLECULE
DQQDLYVHOTZLOR-OCIMBMBZSA-L	6044467	-2541.4554732430342
 54 56 0 0 0
SMALL
MULLIKEN NwChem

@<TRIPOS>ATOM
      1 C           1.9719    0.9188   -4.3592 C.ar    1  LIG1       -0.29000000000000004
      2 C           2.0253    0.6021   -3.0530 C.ar    1  LIG1       0.08999999999999986
      3 C          -3.7836   -4.3415   -0.4090 C.3     1  LIG1       -0.05999999999999961
      4 C           0.5779    2.6450    2.0210 C.3     1  LIG1       -0.07000000000000028
      5 C          -4.6804   -3.2945   -1.0777 C.3     1  LIG1       0.11000000000000032
      6 C           1.6567    1.8456    1.3007 C.3     1  LIG1       0.08000000000000007
      7 C           2.3985    2.2659   -4.8034 C.ar    1  LIG1       0.5199999999999996
      8 C          -3.7963   -2.1902   -1.6813 C.3     1  LIG1       0.09999999999999964
      9 C           3.0582    2.4649    1.2085 C.3     1  LIG1       0.1200000000000001
     10 C           3.6830    1.5482    0.1379 C.3     1  LIG1       0.04999999999999982
     11 C          -2.8504   -1.6194   -0.6071 C.3     1  LIG1       0.019999999999999574
     12 C           2.4736    1.1326   -0.7390 C.3     1  LIG1       0.2699999999999996
     13 C          -2.0782   -2.7759    0.0781 C.3     1  LIG1       0.3799999999999999
     14 C           2.8311    2.8680   -2.5381 C.ar    1  LIG1       0.6799999999999997
     15 N           2.7913    3.1675   -3.8425 N.ar    1  LIG1      -0.6600000000000001
     16 N           2.4889    1.5077   -2.1189 N.ar    1  LIG1         -0.5
     17 O          -5.6274   -2.7537   -0.1723 O.3     1  LIG1      -0.6899999999999995
     18 O           2.3863    2.5454   -6.0175 O.2     1  LIG1      -0.6600000000000001
     19 O          -3.0603   -2.7874   -2.7560 O.3     1  LIG1      -0.6699999999999999
     20 O           3.7675    2.4619    2.4337 O.3     1  LIG1      -0.6799999999999997
     21 O           4.2628    0.3960    0.7961 O.3     1  LIG1      -0.6899999999999995
     22 O          -3.6285   -0.8857    0.3109 O.3     1  LIG1      -0.7100000000000009
     23 O           3.1639    3.6430   -1.6230 O.2     1  LIG1      -0.6300000000000008
     24 O          -1.6462    0.8417    1.0292 O.2     1  LIG1      -0.7400000000000002
     25 O          -2.1408    0.3405    3.5787 O.3     1  LIG1      -0.6199999999999992
     26 O           0.1246   -0.8175   -0.1990 O.3     1  LIG1      -0.7400000000000002
     27 O           1.2401   -2.5881    1.2832 O.2     1  LIG1      -0.5899999999999999
     28 O          -2.9584   -3.7547    0.5917 O.3     1  LIG1      -0.5199999999999996
     29 O          -0.2204    1.8705    2.9347 O.3     1  LIG1      -0.5600000000000005
     30 O           1.3042    1.6501   -0.0690 O.3     1  LIG1      -0.5399999999999991
     31 O          -1.3861   -2.3259    1.2261 O.3     1  LIG1      -0.5800000000000001
     32 O          -0.0136   -0.5999    2.3745 O.3     1  LIG1      -0.6600000000000001
     33 P          -1.1992    0.6522    2.4768 P.3     1  LIG1       1.1999999999999993
     34 P           0.0961   -1.6507    1.1754 P.3     1  LIG1       1.2699999999999996
     35 H           1.6246    0.2058   -5.0996 H       1  LIG1          0.14
     36 H           1.7148   -0.3629   -2.6541 H       1  LIG1       0.18999999999999995
     37 H          -4.3993   -5.0791    0.1129 H       1  LIG1       0.17000000000000004
     38 H          -3.1739   -4.8493   -1.1744 H       1  LIG1       0.15000000000000002
     39 H           1.0544    3.3921    2.6610 H       1  LIG1       0.18999999999999995
     40 H          -0.0562    3.1400    1.2793 H       1  LIG1       0.18000000000000005
     41 H          -5.2444   -3.7784   -1.8887 H       1  LIG1       0.16000000000000003
     42 H           1.7590    0.8844    1.8262 H       1  LIG1       0.16000000000000003
     43 H          -4.4440   -1.3751   -2.0378 H       1  LIG1       0.15000000000000002
     44 H           3.0004    3.4842    0.8233 H       1  LIG1       0.17000000000000004
     45 H           4.4769    2.0230   -0.4331 H       1  LIG1       0.18000000000000005
     46 H          -2.1128   -0.9681   -1.0959 H       1  LIG1       0.16000000000000003
     47 H           2.4080    0.0361   -0.7210 H       1  LIG1       0.18000000000000005
     48 H          -1.3837   -3.2306   -0.6508 H       1  LIG1       0.16000000000000003
     49 H          -5.1282   -2.1344    0.4011 H       1  LIG1       0.43000000000000005
     50 H          -2.3545   -2.1679   -3.0036 H       1  LIG1       0.43999999999999995
     51 H           4.1456    1.5613    2.4718 H       1  LIG1       0.42000000000000004
     52 H           3.5699   -0.2800    0.9029 H       1  LIG1       0.43999999999999995
     53 H          -3.0203   -0.2199    0.7310 H       1  LIG1          0.47
     54 H          -0.3199    0.0668   -0.0581 H       1  LIG1           0.49
@<TRIPOS>BOND
     1    18     7    2
     2    35     1    1
     3     7     1   ar
     4     7    15   ar
     5     1     2   ar
     6    15    14   ar
     7     2    36    1
     8     2    16   ar
     9    50    19    1
    10    19     8    1
    11    14    16   ar
    12    14    23    2
    13    16    12    1
    14    43     8    1
    15    41     5    1
    16     8     5    1
    17     8    11    1
    18    38     3    1
    19    46    11    1
    20     5     3    1
    21     5    17    1
    22    12    47    1
    23    12    30    1
    24    12    10    1
    25    48    13    1
    26    11    13    1
    27    11    22    1
    28    45    10    1
    29     3    37    1
    30     3    28    1
    31    26    54    1
    32    26    34    1
    33    17    49    1
    34    30     6    1
    35    13    28    1
    36    13    31    1
    37    10    21    1
    38    10     9    1
    39    22    53    1
    40    21    52    1
    41    44     9    1
    42    24    33    2
    43    34    31    1
    44    34    27    2
    45    34    32    1
    46     9     6    1
    47     9    20    1
    48    40     4    1
    49     6    42    1
    50     6     4    1
    51     4    39    1
    52     4    29    1
    53    32    33    1
    54    20    51    1
    55    33    29    1
    56    33    25    1
