@<TRIPOS>MOLECULE
DRAVOWXCEBXPTN-UHFFFAOYSA-N	6044468	-542.4720317208765
 16 17 0 0 0
SMALL
MULLIKEN NwChem

@<TRIPOS>ATOM
      1 C           2.7051    0.1990    0.0026 C.ar    1  LIG1       0.1200000000000001
      2 C           0.7490   -0.5657   -0.0039 C.ar    1  LIG1       0.20000000000000018
      3 C          -0.4614   -1.2621   -0.0092 C.ar    1  LIG1       0.4900000000000002
      4 C           0.7259    0.8480    0.0024 C.ar    1  LIG1       0.4900000000000002
      5 C          -1.6129    0.7345    0.0032 C.ar    1  LIG1          0.75
      6 N          -0.5247   -2.6083   -0.0318 N.pl3   1  LIG1      -0.7800000000000002
      7 N           2.0625   -0.9698   -0.0031 N.ar    1  LIG1      -0.5800000000000001
      8 N           1.9503    1.3552    0.0063 N.ar    1  LIG1      -0.5700000000000003
      9 N          -1.6465   -0.5753   -0.0026 N.ar    1  LIG1      -0.5999999999999996
     10 N          -0.4964    1.4965    0.0048 N.ar    1  LIG1      -0.7000000000000002
     11 O          -2.7573    1.4403    0.0084 O.3     1  LIG1      -0.6099999999999994
     12 H           3.7879    0.2561    0.0042 H       1  LIG1       0.15000000000000002
     13 H           0.3334   -3.1367    0.0245 H       1  LIG1          0.39
     14 H          -1.4148   -3.0763    0.0374 H       1  LIG1          0.38
     15 H          -0.5627    2.5078    0.0081 H       1  LIG1           0.4
     16 H          -3.4782    0.7863    0.0031 H       1  LIG1           0.47
@<TRIPOS>BOND
     1     6     3    1
     2     6    13    1
     3     6    14    1
     4     3     2   ar
     5     3     9   ar
     6     2     7   ar
     7     2     4   ar
     8     7     1   ar
     9     9     5   ar
    10     4    10   ar
    11     4     8   ar
    12     1    12    1
    13     1     8   ar
    14    16    11    1
    15     5    10   ar
    16     5    11    1
    17    10    15    1
