@<TRIPOS>MOLECULE
DRTQHJPVMGBUCF-XVFCMESISA-N	6044470	-910.8457849862704
 29 30 0 0 0
SMALL
MULLIKEN NwChem

@<TRIPOS>ATOM
      1 C5          0.6423   -1.3453   -3.3484 C.ar    1    U1       -0.2400000000000002
      2 C6          0.5036   -1.6505   -2.0305 C.ar    1    U1       0.1200000000000001
      3 C5*        -2.4872    0.6533    2.1083 C.3     1    U1       -0.04999999999999982
      4 C4*        -1.2731   -0.2546    1.9546 C.3     1    U1       0.11000000000000032
      5 C4          0.6582    0.0473   -3.6517 C.ar    1    U1       0.5599999999999996
      6 C3*         0.0636    0.4661    2.1996 C.3     1    U1       0.08999999999999986
      7 C2*         1.0599   -0.3706    1.3683 C.3     1    U1       0.05999999999999961
      8 C1*         0.1597   -1.0526    0.3122 C.3     1    U1       0.2599999999999998
      9 C2          0.4107    0.7136   -1.4368 C.ar    1    U1       0.7300000000000004
     10 N3          0.5524    1.0083   -2.7707 N.ar    1    U1      -0.6100000000000003
     11 N1          0.4129   -0.6794   -1.0791 N.ar    1    U1      -0.4800000000000004
     12 O5*        -2.6340    1.0463    3.4651 O.3     1    U1      -0.6699999999999999
     13 O4          0.7900    0.3843   -4.9437 O.3     1    U1      -0.6099999999999994
     14 O3*         0.4022    0.5753    3.5767 O.3     1    U1      -0.6600000000000001
     15 O2*         1.6174   -1.4196    2.1634 O.3     1    U1      -0.6799999999999997
     16 O2          0.3041    1.5550   -0.5580 O.2     1    U1      -0.5700000000000003
     17 O4*        -1.1902   -0.7521    0.6198 O.3     1    U1      -0.5299999999999994
     18 H5          0.7238   -2.0986   -4.1193 H       1    U1       0.19999999999999996
     19 H6          0.4629   -2.6737   -1.6719 H       1    U1          0.24
     20 H5*1       -2.3759    1.5109    1.4261 H       1    U1          0.14
     21 H5*2       -3.4002    0.1174    1.8318 H       1    U1       0.16000000000000003
     22 H4*        -1.3663   -1.0937    2.6664 H       1    U1       0.15000000000000002
     23 H3*         0.0253    1.4808    1.8050 H       1    U1       0.18000000000000005
     24 H2*         1.8430    0.2401    0.9111 H       1    U1       0.18000000000000005
     25 H1*         0.3366   -2.1333    0.3791 H       1    U1       0.18999999999999995
     26 H5*        -1.7735    1.3809    3.7707 H       1    U1       0.42000000000000004
     27 H4          0.7741    1.3601   -4.9710 H       1    U1       0.44999999999999996
     28 H3*         0.3299   -0.3185    3.9531 H       1    U1       0.43000000000000005
     29 H2*         2.2063   -0.9905    2.8055 H       1    U1       0.43000000000000005
@<TRIPOS>BOND
     1    27    13    1
     2    13     5    1
     3    18     1    1
     4     5     1   ar
     5     5    10   ar
     6     1     2   ar
     7    10     9   ar
     8     2    19    1
     9     2    11   ar
    10     9    11   ar
    11     9    16    2
    12    11     8    1
    13     8    25    1
    14     8    17    1
    15     8     7    1
    16    17     4    1
    17    24     7    1
    18     7    15    1
    19     7     6    1
    20    20     3    1
    21    23     6    1
    22    21     3    1
    23     4     3    1
    24     4     6    1
    25     4    22    1
    26     3    12    1
    27    15    29    1
    28     6    14    1
    29    12    26    1
    30    14    28    1
