@<TRIPOS>MOLECULE
DRYMMXUBDRJPDS-UHFFFAOYSA-N	6044471	-362.94388943858627
 16 15 0 0 0
SMALL
MULLIKEN NwChem

@<TRIPOS>ATOM
      1 C           1.1130   -1.2921   -0.5476 C.3     1  LIG1      -0.45999999999999996
      2 C           1.1409    1.2414   -0.6616 C.3     1  LIG1      -0.4800000000000004
      3 C          -0.9454   -0.0000    0.0309 C.3     1  LIG1       0.4900000000000002
      4 C           0.5884    0.0090    0.0684 C.3     1  LIG1          0.25
      5 N          -1.7456   -0.1609    1.0027 N.3     1  LIG1      -0.7000000000000002
      6 O          -1.4195    0.1696   -1.2304 O.3     1  LIG1      -0.6199999999999992
      7 O           1.0231   -0.0021    1.4309 O.3     1  LIG1      -0.6799999999999997
      8 H           0.7617   -1.3953   -1.5776 H       1  LIG1       0.17000000000000004
      9 H           0.7609   -2.1480    0.0361 H       1  LIG1       0.16000000000000003
     10 H           2.2074   -1.2884   -0.5355 H       1  LIG1       0.17000000000000004
     11 H           0.8455    1.2420   -1.7134 H       1  LIG1       0.17000000000000004
     12 H           0.7601    2.1653   -0.2073 H       1  LIG1       0.17000000000000004
     13 H           2.2332    1.2428   -0.5919 H       1  LIG1       0.17000000000000004
     14 H          -1.2081   -0.3068    1.8596 H       1  LIG1       0.31999999999999995
     15 H          -2.3904    0.1128   -1.1565 H       1  LIG1       0.43999999999999995
     16 H           0.8641    0.8834    1.7971 H       1  LIG1       0.43000000000000005
@<TRIPOS>BOND
     1    11     2    1
     2     8     1    1
     3     6    15    1
     4     6     3    1
     5     2    13    1
     6     2    12    1
     7     2     4    1
     8     1    10    1
     9     1     9    1
    10     1     4    1
    11     3     4    1
    12     3     5    1
    13     4     7    1
    14     5    14    1
    15     7    16    1
