@<TRIPOS>MOLECULE
DSLZVSRJTYRBFB-LLEIAEIESA-L	6044472	-835.4116736176758
 22 21 0 0 0
SMALL
MULLIKEN NwChem

@<TRIPOS>ATOM
      1 C           0.7209   -0.3175   -0.2090 C.3     1  LIG1       0.07000000000000028
      2 C           0.3469    0.0167    1.2816 C.3     1  LIG1       0.1299999999999999
      3 C           0.8164    0.9684   -1.0680 C.3     1  LIG1       0.019999999999999574
      4 C          -0.7783   -0.9017    1.8043 C.3     1  LIG1       0.03000000000000025
      5 C           1.4369    0.6934   -2.4841 C.2     1  LIG1          0.54
      6 C          -2.1878   -0.5022    1.2187 C.2     1  LIG1       0.5300000000000002
      7 O           1.9494   -1.0492   -0.2079 O.3     1  LIG1      -0.7300000000000004
      8 O           1.5269   -0.0691    2.0798 O.3     1  LIG1      -0.7200000000000006
      9 O          -0.4376    1.6321   -1.0811 O.3     1  LIG1      -0.7200000000000006
     10 O          -0.8752   -0.8713    3.2238 O.3     1  LIG1      -0.7200000000000006
     11 O           0.8805    1.1202   -3.5069 O.co2   1  LIG1      -0.6400000000000006
     12 O           2.5555    0.0530   -2.4228 O.co2   1  LIG1      -0.6799999999999997
     13 O          -3.1102   -0.4708    2.0857 O.co2   1  LIG1      -0.6500000000000004
     14 O          -2.2932   -0.2643   -0.0132 O.co2   1  LIG1      -0.6300000000000008
     15 H          -0.0747   -0.9392   -0.6387 H       1  LIG1          0.13
     16 H          -0.0164    1.0517    1.3312 H       1  LIG1          0.12
     17 H           1.5413    1.6315   -0.5616 H       1  LIG1          0.14
     18 H          -0.5516   -1.9339    1.4711 H       1  LIG1          0.12
     19 H           2.4063   -0.7107   -1.0580 H       1  LIG1       0.42000000000000004
     20 H           2.1438   -0.5243    1.4627 H       1  LIG1       0.42000000000000004
     21 H          -1.1282    0.9701   -0.8503 H       1  LIG1       0.43000000000000005
     22 H          -1.8509   -0.7199    3.3053 H       1  LIG1            0.4
@<TRIPOS>BOND
     1    11     5   ar
     2     5    12   ar
     3     5     3    1
     4     9     3    1
     5     9    21    1
     6     3    17    1
     7     3     1    1
     8    19     7    1
     9    15     1    1
    10     1     7    1
    11     1     2    1
    12    14     6   ar
    13     6     4    1
    14     6    13   ar
    15     2    16    1
    16     2     4    1
    17     2     8    1
    18    20     8    1
    19    18     4    1
    20     4    10    1
    21    10    22    1
