@<TRIPOS>MOLECULE
DTBNBXWJWCWCIK-UHFFFAOYSA-K	11152522	-908.6591986485503
 12 11 0 0 0
SMALL
MULLIKEN NwChem

@<TRIPOS>ATOM
      1 C          -1.3261   -1.3424   -0.4429 C.2     1  LIG1             -0.5
      2 C          -1.0654   -0.1322    0.1212 C.2     1  LIG1       0.3200000000000003
      3 C          -2.2798    0.6777    0.7407 C.2     1  LIG1       0.4500000000000002
      4 O          -2.0380    1.7976    1.2701 O.co2   1  LIG1      -0.6899999999999995
      5 O          -3.4312    0.1332    0.6599 O.co2   1  LIG1      -0.6899999999999995
      6 O           1.9296   -1.5236    0.3697 O.3     1  LIG1      -0.8000000000000007
      7 O           1.5207   -0.3735   -1.9260 O.2     1  LIG1      -0.8000000000000007
      8 O           2.6595    0.9478    0.0055 O.3     1  LIG1      -0.7799999999999994
      9 O           0.1310    0.4527    0.2082 O.2     1  LIG1      -0.6799999999999997
     10 P           1.7469   -0.2141   -0.4141 P.3     1  LIG1       0.9399999999999995
     11 H          -0.5263   -1.9316   -0.8793 H       1  LIG1          0.12
     12 H          -2.3514   -1.7020   -0.4481 H       1  LIG1       0.10999999999999999
@<TRIPOS>BOND
     1     7    10    2
     2    11     1    1
     3    12     1    1
     4     1     2    2
     5    10     8    1
     6    10     9    1
     7    10     6    1
     8     2     9    1
     9     2     3    1
    10     5     3   ar
    11     3     4   ar
