@<TRIPOS>MOLECULE
DTERQYGMUDWYAZ-ZETCQYMHSA-N	6044474	-649.4830989208637
 29 28 0 0 0
SMALL
MULLIKEN NwChem

@<TRIPOS>ATOM
      1 C1         -1.5425   -2.6555    1.1341 C.3     1  <1>        -0.5300000000000002
      2 C2          1.1611    0.6075    0.5215 C.3     1  <1>       -0.2699999999999996
      3 C3          0.0347    1.2761    1.3257 C.3     1  <1>       -0.2699999999999996
      4 C4          0.7085   -0.1580   -0.7319 C.3     1  <1>       -0.29000000000000004
      5 C5         -1.1078    0.3278    1.7229 C.3     1  <1>        -0.16999999999999993
      6 C6         -0.8056   -1.9841    2.2650 C.2     1  <1>            0.5
      7 C7         -0.1293    0.6319   -1.7623 C.3     1  <1>        -0.04999999999999982
      8 C8          0.7196    1.7502   -2.3636 C.2     1  <1>        0.5800000000000001
      9 N1         -0.6365   -0.2938   -2.7737 N.3     1  <1>       -0.7599999999999998
     10 N2         -0.6110   -0.7600    2.5434 N.2     1  <1>          -0.5
     11 O1         -0.2857   -2.9272    3.1014 O.2     1  <1>       -0.6199999999999992
     12 O2          1.3626    1.6544   -3.3864 O.2     1  <1>       -0.5199999999999996
     13 O3          0.7052    2.8788   -1.6098 O.3     1  <1>       -0.5800000000000001
     14 H1         -1.9815   -1.9440    0.4345 H       1  <1>        0.18999999999999995
     15 H2         -2.3342   -3.2916    1.5442 H       1  <1>        0.18999999999999995
     16 H3         -0.8518   -3.3073    0.5887 H       1  <1>        0.18999999999999995
     17 H4          1.8962    1.3736    0.2476 H       1  <1>           0.14
     18 H5          1.6795   -0.1066    1.1725 H       1  <1>           0.14
     19 H6         -0.3860    2.1142    0.7566 H       1  <1>           0.14
     20 H7          0.4669    1.7015    2.2397 H       1  <1>           0.14
     21 H8          1.5903   -0.5620   -1.2491 H       1  <1>        0.15000000000000002
     22 H9          0.0993   -1.0212   -0.4489 H       1  <1>        0.16000000000000003
     23 H10        -1.6409   -0.0075    0.8197 H       1  <1>        0.15000000000000002
     24 H11        -1.8360    0.8952    2.3190 H       1  <1>        0.15000000000000002
     25 H12        -0.9849    1.0893   -1.2552 H       1  <1>        0.18000000000000005
     26 H13        -1.2214    0.2158   -3.4358 H       1  <1>        0.32999999999999996
     27 H14         0.1561   -0.6260   -3.3251 H       1  <1>        0.31999999999999995
     28 H15         0.1618   -2.4216    3.8062 H       1  <1>        0.43000000000000005
     29 H16         1.3057    3.5136   -2.0461 H       1  <1>        0.43999999999999995
@<TRIPOS>BOND
     1    26     9    1
     2    12     8    2
     3    27     9    1
     4     9     7    1
     5     8     7    1
     6     8    13    1
     7    29    13    1
     8     7    25    1
     9     7     4    1
    10    21     4    1
    11     4    22    1
    12     4     2    1
    13    17     2    1
    14    14     1    1
    15     2    18    1
    16     2     3    1
    17    16     1    1
    18    19     3    1
    19    23     5    1
    20     1    15    1
    21     1     6    1
    22     3     5    1
    23     3    20    1
    24     5    24    1
    25     5    10    1
    26     6    10    2
    27     6    11    1
    28    11    28    1
