@<TRIPOS>MOLECULE
DTOSIQBPPRVQHS-PDBXOOCHSA-M	6044475	-853.567380083683
 49 48 0 0 0
SMALL
MULLIKEN NwChem

@<TRIPOS>ATOM
      1 C           6.2667   -2.9380   -6.5342 C.3     1  LIG1      -0.4500000000000002
      2 C           5.8284   -3.4459   -5.1495 C.3     1  LIG1      -0.2999999999999998
      3 C           5.9368   -2.3762   -4.0952 C.2     1  LIG1      -0.11000000000000032
      4 C           4.9553   -1.8410   -3.3595 C.2     1  LIG1      -0.1200000000000001
      5 C           3.4881   -2.2048   -3.3600 C.3     1  LIG1      -0.3600000000000003
      6 C           3.0962   -2.8545   -2.0511 C.2     1  LIG1      -0.1200000000000001
      7 C           2.3224   -2.3452   -1.0852 C.2     1  LIG1      -0.11000000000000032
      8 C           1.5999   -1.0191   -1.0685 C.3     1  LIG1      -0.3600000000000003
      9 C           0.1025   -1.2128   -0.9692 C.2     1  LIG1      -0.1200000000000001
     10 C          -0.7015   -0.8102    0.0230 C.2     1  LIG1      -0.1200000000000001
     11 C          -0.3290   -0.0291    1.2551 C.3     1  LIG1      -0.3200000000000003
     12 C          -0.6992    1.4693    1.1534 C.3     1  LIG1      -0.2599999999999998
     13 C          -2.1863    1.7495    0.8738 C.3     1  LIG1      -0.2699999999999996
     14 C          -3.1694    1.1418    1.8882 C.3     1  LIG1      -0.28000000000000025
     15 C          -2.9317    1.5556    3.3509 C.3     1  LIG1      -0.2699999999999996
     16 C          -2.9702    3.0747    3.6087 C.3     1  LIG1      -0.2599999999999998
     17 C          -4.2283    3.7592    3.0468 C.3     1  LIG1       -0.33000000000000007
     18 C          -5.5230    2.9982    3.5105 C.2     1  LIG1       0.5199999999999996
     19 O          -5.6798    2.9510    4.7577 O.co2   1  LIG1      -0.6799999999999997
     20 O          -6.2167    2.4844    2.5936 O.co2   1  LIG1      -0.6799999999999997
     21 H           5.6165   -2.1228   -6.8708 H       1  LIG1       0.15000000000000002
     22 H           6.2305   -3.7383   -7.2831 H       1  LIG1       0.15000000000000002
     23 H           7.2932   -2.5518   -6.5040 H       1  LIG1       0.15000000000000002
     24 H           4.8072   -3.8374   -5.2090 H       1  LIG1       0.15000000000000002
     25 H           6.4672   -4.2955   -4.8649 H       1  LIG1       0.15000000000000002
     26 H           6.9479   -1.9910   -3.9457 H       1  LIG1          0.13
     27 H           5.2209   -1.0720   -2.6339 H       1  LIG1          0.13
     28 H           2.8949   -1.2983   -3.5314 H       1  LIG1       0.16000000000000003
     29 H           3.2585   -2.8873   -4.1876 H       1  LIG1       0.16000000000000003
     30 H           3.5421   -3.8365   -1.8888 H       1  LIG1          0.14
     31 H           2.1491   -2.9552   -0.1977 H       1  LIG1          0.13
     32 H           1.9619   -0.4252   -0.2199 H       1  LIG1       0.16000000000000003
     33 H           1.8355   -0.4388   -1.9701 H       1  LIG1       0.16000000000000003
     34 H          -0.3354   -1.7609   -1.8044 H       1  LIG1          0.13
     35 H          -1.7642   -1.0310   -0.0748 H       1  LIG1          0.14
     36 H          -0.8518   -0.4607    2.1179 H       1  LIG1       0.15000000000000002
     37 H           0.7438   -0.1183    1.4669 H       1  LIG1       0.15000000000000002
     38 H          -0.4061    1.9575    2.0920 H       1  LIG1          0.14
     39 H          -0.0883    1.9219    0.3587 H       1  LIG1          0.13
     40 H          -2.3289    2.8372    0.8463 H       1  LIG1          0.14
     41 H          -2.4356    1.3866   -0.1339 H       1  LIG1          0.13
     42 H          -4.1933    1.4328    1.6250 H       1  LIG1          0.13
     43 H          -3.1323    0.0430    1.8182 H       1  LIG1          0.13
     44 H          -3.7200    1.1016    3.9620 H       1  LIG1          0.12
     45 H          -1.9744    1.1477    3.7152 H       1  LIG1          0.13
     46 H          -2.9641    3.2279    4.6949 H       1  LIG1          0.12
     47 H          -2.0577    3.5490    3.2079 H       1  LIG1          0.13
     48 H          -4.2589    4.7936    3.4202 H       1  LIG1       0.10999999999999999
     49 H          -4.1977    3.8013    1.9502 H       1  LIG1           0.12
@<TRIPOS>BOND
     1    22     1    1
     2    21     1    1
     3     1    23    1
     4     1     2    1
     5    24     2    1
     6     2    25    1
     7     2     3    1
     8    29     5    1
     9     3    26    1
    10     3     4    2
    11    28     5    1
    12     5     4    1
    13     5     6    1
    14     4    27    1
    15     6    30    1
    16     6     7    2
    17    33     8    1
    18    34     9    1
    19     7     8    1
    20     7    31    1
    21     8     9    1
    22     8    32    1
    23     9    10    2
    24    41    13    1
    25    35    10    1
    26    10    11    1
    27    39    12    1
    28    40    13    1
    29    13    12    1
    30    13    14    1
    31    12    11    1
    32    12    38    1
    33    11    37    1
    34    11    36    1
    35    42    14    1
    36    43    14    1
    37    14    15    1
    38    49    17    1
    39    20    18   ar
    40    17    48    1
    41    17    18    1
    42    17    16    1
    43    47    16    1
    44    15    16    1
    45    15    45    1
    46    15    44    1
    47    18    19   ar
    48    16    46    1
