@<TRIPOS>MOLECULE
DTUQWGWMVIHBKE-UHFFFAOYSA-N	6044476	-384.7841652134241
 17 17 0 0 0
SMALL
MULLIKEN NwChem

@<TRIPOS>ATOM
      1 C          -2.5673   -0.4099    0.4394 C.ar    1  LIG1      -0.15000000000000036
      2 C          -1.9462    0.8411    0.4799 C.ar    1  LIG1      -0.15000000000000036
      3 C          -1.7896   -1.5649    0.3466 C.ar    1  LIG1      -0.15000000000000036
      4 C          -0.5560    0.9337    0.4283 C.ar    1  LIG1      -0.1900000000000004
      5 C          -0.3974   -1.4698    0.2964 C.ar    1  LIG1      -0.20000000000000018
      6 C           1.7429   -0.0936    0.2500 C.3     1  LIG1       -0.41999999999999993
      7 C           2.1293    0.4445   -1.1193 C.2     1  LIG1       0.2699999999999996
      8 C           0.2340   -0.2218    0.3432 C.ar    1  LIG1      0.1299999999999999
      9 O           2.6872    1.5021   -1.3052 O.2     1  LIG1      -0.4399999999999995
     10 H          -3.6507   -0.4830    0.4803 H       1  LIG1       0.16000000000000003
     11 H          -2.5450    1.7452    0.5504 H       1  LIG1       0.16000000000000003
     12 H          -2.2650   -2.5417    0.3150 H       1  LIG1       0.16000000000000003
     13 H          -0.0728    1.9078    0.4519 H       1  LIG1       0.16000000000000003
     14 H           0.2041   -2.3735    0.2285 H       1  LIG1       0.16000000000000003
     15 H           2.1413    0.5900    1.0066 H       1  LIG1       0.18000000000000005
     16 H           2.2143   -1.0766    0.3823 H       1  LIG1       0.19999999999999996
     17 H           1.8256   -0.2056   -1.9710 H       1  LIG1           0.14
@<TRIPOS>BOND
     1    17     7    1
     2     9     7    2
     3     7     6    1
     4    14     5    1
     5     6     8    1
     6     6    16    1
     7     6    15    1
     8     5     8   ar
     9     5     3   ar
    10    12     3    1
    11     8     4   ar
    12     3     1   ar
    13     4    13    1
    14     4     2   ar
    15     1     2   ar
    16     1    10    1
    17     2    11    1
