@<TRIPOS>MOLECULE
DUAWRLXHCUAWMK-UHFFFAOYSA-M	6044478	-322.02086348721525
 10 9 0 0 0
SMALL
MULLIKEN NwChem

@<TRIPOS>ATOM
      1 CB          0.8775    1.4756    0.8162 C.3     1  ALA1      -0.5199999999999996
      2 CA          0.3946    0.5179   -0.2554 C.3     1  ALA1       0.21999999999999975
      3 C          -0.5038   -0.6970    0.1858 C.2     1  ALA1       0.4900000000000002
      4 N           0.7147    0.7013   -1.4801 N.3     1  ALA1      -0.6600000000000001
      5 O          -0.8505   -1.4451   -0.7642 O.co2   1  ALA1      -0.6600000000000001
      6 OXT        -0.7638   -0.7723    1.4121 O.co2   1  ALA1      -0.6500000000000004
      7 HB1         0.4852    1.1583    1.7843 H       1  ALA1       0.16000000000000003
      8 HB2         0.5472    2.4999    0.5977 H       1  ALA1       0.17000000000000004
      9 HB3         1.9752    1.4934    0.8502 H       1  ALA1       0.17000000000000004
     10 H           0.2565   -0.0887   -1.9683 H       1  ALA1       0.29000000000000004
@<TRIPOS>BOND
     1    10     4    1
     2     4     2    1
     3     5     3   ar
     4     2     3    1
     5     2     1    1
     6     3     6   ar
     7     8     1    1
     8     1     9    1
     9     1     7    1
