@<TRIPOS>MOLECULE
DUUGKQCEGZLZNO-UHFFFAOYSA-M	6044479	-666.3110439339564
 22 23 0 0 0
SMALL
MULLIKEN NwChem

@<TRIPOS>ATOM
      1 C           2.8181    1.7239   -0.5676 C.2     1  LIG1      -0.29000000000000004
      2 C           1.6069    2.3950   -0.5279 C.2     1  LIG1      -0.20000000000000018
      3 C          -1.3414   -1.6574   -0.1719 C.3     1  LIG1       -0.40000000000000036
      4 C           1.7117   -0.4510   -0.4152 C.3     1  LIG1       -0.41999999999999993
      5 C          -1.6960    0.8967   -0.2288 C.ar    1  LIG1       -0.03000000000000025
      6 C          -0.8906   -0.2181   -0.2338 C.ar    1  LIG1          0.0
      7 C           2.9597    0.2646   -0.5191 C.2     1  LIG1       0.3899999999999997
      8 C           0.4860    0.2231   -0.3530 C.ar    1  LIG1      0.09999999999999964
      9 C           0.4319    1.6395   -0.4180 C.ar    1  LIG1       0.20999999999999996
     10 C          -2.4980   -1.7891    0.7862 C.2     1  LIG1       0.5800000000000001
     11 N          -0.9182    2.0283   -0.4001 N.ar    1  LIG1      -0.6799999999999997
     12 O           4.0964   -0.2922   -0.5674 O.2     1  LIG1      -0.7899999999999991
     13 O          -3.6636   -1.5420    0.5398 O.2     1  LIG1      -0.5199999999999996
     14 O          -2.1087   -2.1863    2.0297 O.3     1  LIG1      -0.5800000000000001
     15 H           3.7496    2.2833   -0.6446 H       1  LIG1       0.08999999999999997
     16 H           1.5656    3.4853   -0.5778 H       1  LIG1          0.13
     17 H          -1.6752   -2.0325   -1.1493 H       1  LIG1       0.18999999999999995
     18 H          -0.5089   -2.2806    0.1669 H       1  LIG1       0.18999999999999995
     19 H           1.7600   -1.5390   -0.3813 H       1  LIG1       0.07999999999999996
     20 H          -2.7734    0.9603   -0.1511 H       1  LIG1       0.17000000000000004
     21 H          -1.2184    2.9431   -0.0979 H       1  LIG1          0.36
     22 H          -2.9196   -2.1576    2.5709 H       1  LIG1       0.43999999999999995
@<TRIPOS>BOND
     1    17     3    1
     2    15     1    1
     3    16     2    1
     4     1     2    2
     5     1     7    1
     6    12     7    2
     7     2     9    1
     8     7     4    1
     9     9    11   ar
    10     9     8   ar
    11     4    19    1
    12     4     8    1
    13    11     5   ar
    14    11    21    1
    15     8     6   ar
    16     6     5   ar
    17     6     3    1
    18     5    20    1
    19     3    18    1
    20     3    10    1
    21    13    10    2
    22    10    14    1
    23    14    22    1
