@<TRIPOS>MOLECULE
DUYSYHSSBDVJSM-KRWOKUGFSA-M	6044480	-1480.1944533325286
 62 61 0 0 0
SMALL
MULLIKEN NwChem

@<TRIPOS>ATOM
      1 C           5.7573    0.3081    7.4081 C.3     1  LIG1      -0.45999999999999996
      2 C           5.7847    0.5995    5.9032 C.3     1  LIG1      -0.2599999999999998
      3 C           5.6550   -0.6533    5.0212 C.3     1  LIG1      -0.2599999999999998
      4 C           4.3671   -1.4705    5.2270 C.3     1  LIG1      -0.2699999999999996
      5 C           3.0589   -0.6838    5.0355 C.3     1  LIG1      -0.2699999999999996
      6 C           2.8988   -0.0019    3.6656 C.3     1  LIG1      -0.2699999999999996
      7 C           2.9950   -0.9420    2.4508 C.3     1  LIG1      -0.2699999999999996
      8 C           2.0106   -2.1247    2.4626 C.3     1  LIG1      -0.2699999999999996
      9 C           0.5266   -1.7337    2.5778 C.3     1  LIG1      -0.2699999999999996
     10 C           0.0179   -0.7792    1.4838 C.3     1  LIG1      -0.2699999999999996
     11 C           0.1814   -1.2802    0.0396 C.3     1  LIG1      -0.29000000000000004
     12 C          -0.4827   -2.6377   -0.2559 C.3     1  LIG1      -0.2599999999999998
     13 C          -1.9998   -2.7045    0.0531 C.3     1  LIG1      -0.3099999999999996
     14 C          -2.7306   -1.5497   -0.5719 C.2     1  LIG1      -0.1200000000000001
     15 C          -3.3283   -1.5586   -1.7631 C.2     1  LIG1      -0.16999999999999993
     16 C          -2.8570    1.3328   -4.2878 C.3     1  LIG1       -0.05999999999999961
     17 C          -2.9009   -0.1237   -3.7637 C.3     1  LIG1       -0.019999999999999574
     18 C          -3.7785   -0.2914   -2.4674 C.3     1  LIG1       0.09999999999999964
     19 N          -3.3013   -1.0467   -4.8474 N.3     1  LIG1        -0.79
     20 O          -3.7600    0.8271   -1.6166 O.3     1  LIG1      -0.7200000000000006
     21 O           0.5713    2.7867   -3.2535 O.2     1  LIG1      -0.6799999999999997
     22 O          -1.7408    3.7516   -2.6136 O.3     1  LIG1      -0.7300000000000004
     23 O          -1.1800    1.4172   -1.8009 O.3     1  LIG1      -0.7100000000000009
     24 O          -1.5273    1.8551   -4.3288 O.3     1  LIG1      -0.5800000000000001
     25 P          -0.8279    2.3884   -2.9158 P.3     1  LIG1       1.1099999999999994
     26 H           4.7916   -0.1044    7.7215 H       1  LIG1       0.15000000000000002
     27 H           5.9322    1.2193    7.9921 H       1  LIG1          0.14
     28 H           6.5324   -0.4195    7.6824 H       1  LIG1          0.14
     29 H           4.9849    1.3093    5.6554 H       1  LIG1          0.14
     30 H           6.7263    1.1071    5.6525 H       1  LIG1          0.13
     31 H           5.7255   -0.3502    3.9683 H       1  LIG1          0.14
     32 H           6.5192   -1.3081    5.2076 H       1  LIG1          0.13
     33 H           4.3836   -2.3216    4.5338 H       1  LIG1          0.14
     34 H           4.3693   -1.9083    6.2347 H       1  LIG1          0.13
     35 H           2.2170   -1.3689    5.1994 H       1  LIG1          0.14
     36 H           2.9764    0.0810    5.8204 H       1  LIG1          0.13
     37 H           1.9306    0.5143    3.6472 H       1  LIG1          0.13
     38 H           3.6563    0.7864    3.5581 H       1  LIG1          0.13
     39 H           2.8361   -0.3487    1.5419 H       1  LIG1          0.13
     40 H           4.0178   -1.3374    2.3748 H       1  LIG1          0.13
     41 H           2.1602   -2.7065    1.5436 H       1  LIG1          0.13
     42 H           2.2626   -2.8030    3.2906 H       1  LIG1          0.13
     43 H          -0.0728   -2.6544    2.5662 H       1  LIG1          0.13
     44 H           0.3463   -1.2752    3.5608 H       1  LIG1          0.13
     45 H          -1.0422   -0.5685    1.6758 H       1  LIG1          0.14
     46 H           0.5261    0.1899    1.5709 H       1  LIG1          0.13
     47 H          -0.2185   -0.5148   -0.6368 H       1  LIG1       0.15000000000000002
     48 H           1.2513   -1.3639   -0.1989 H       1  LIG1          0.13
     49 H          -0.3482   -2.8544   -1.3240 H       1  LIG1          0.13
     50 H           0.0283   -3.4429    0.2945 H       1  LIG1          0.14
     51 H          -2.3926   -3.6619   -0.3182 H       1  LIG1          0.14
     52 H          -2.1495   -2.7043    1.1428 H       1  LIG1          0.14
     53 H          -2.6651   -0.5928   -0.0602 H       1  LIG1          0.13
     54 H          -3.4032   -2.4921   -2.3283 H       1  LIG1          0.13
     55 H          -3.2117    1.3422   -5.3253 H       1  LIG1       0.16000000000000003
     56 H          -3.5035    1.9836   -3.6881 H       1  LIG1       0.15000000000000002
     57 H          -1.8717   -0.3713   -3.4954 H       1  LIG1       0.15000000000000002
     58 H          -4.8260   -0.4094   -2.8021 H       1  LIG1          0.13
     59 H          -3.1784   -2.0086   -4.5320 H       1  LIG1       0.32999999999999996
     60 H          -4.3048   -0.9432   -5.0135 H       1  LIG1       0.31999999999999995
     61 H          -2.8059    1.1285   -1.5640 H       1  LIG1       0.44999999999999996
     62 H          -1.3227    4.4582   -3.1300 H       1  LIG1       0.44999999999999996
@<TRIPOS>BOND
     1    55    16    1
     2    60    19    1
     3    19    59    1
     4    19    17    1
     5    24    16    1
     6    24    25    1
     7    16    17    1
     8    16    56    1
     9    17    57    1
    10    17    18    1
    11    21    25    2
    12    62    22    1
    13    25    22    1
    14    25    23    1
    15    58    18    1
    16    18    15    1
    17    18    20    1
    18    54    15    1
    19    15    14    2
    20    20    61    1
    21    49    12    1
    22    47    11    1
    23    14    53    1
    24    14    13    1
    25    51    13    1
    26    12    11    1
    27    12    13    1
    28    12    50    1
    29    48    11    1
    30    11    10    1
    31    13    52    1
    32    10    46    1
    33    10    45    1
    34    10     9    1
    35    39     7    1
    36    41     8    1
    37    40     7    1
    38     7     8    1
    39     7     6    1
    40     8     9    1
    41     8    42    1
    42    43     9    1
    43     9    44    1
    44    38     6    1
    45    37     6    1
    46     6     5    1
    47    31     3    1
    48    33     4    1
    49     3    32    1
    50     3     4    1
    51     3     2    1
    52     5    35    1
    53     5     4    1
    54     5    36    1
    55     4    34    1
    56    30     2    1
    57    29     2    1
    58     2     1    1
    59     1    28    1
    60     1    26    1
    61     1    27    1
