@<TRIPOS>MOLECULE
DWAKNKKXGALPNW-BYPYZUCNSA-M	6044482	-399.3982931041177
 14 14 0 0 0
SMALL
MULLIKEN NwChem

@<TRIPOS>ATOM
      1 CG         -0.0533    2.0260    0.1486 C.3     1  PRO1      -0.3099999999999996
      2 CB         -0.9828    0.8900    0.6274 C.3     1  PRO1      -0.29000000000000004
      3 CD          1.2928    1.4479    0.5424 C.3     1  PRO1       0.05999999999999961
      4 CA         -0.0349   -0.3409    0.6448 C.3     1  PRO1       -0.07000000000000028
      5 C          -0.0892   -1.1018   -0.7644 C.2     1  PRO1       0.5099999999999998
      6 N           1.3143    0.2105    0.8530 N.3     1  PRO1      -0.41999999999999993
      7 OXT        -0.2639   -2.3367   -0.7040 O.co2   1  PRO1      -0.6600000000000001
      8 O           0.0197   -0.3318   -1.7520 O.co2   1  PRO1      -0.6600000000000001
      9 HG1        -0.1002    2.1265   -0.9409 H       1  PRO1       0.16000000000000003
     10 HG2        -0.2524    3.0067    0.6074 H       1  PRO1       0.15000000000000002
     11 HB1        -1.3511    1.1074    1.6421 H       1  PRO1          0.14
     12 HB2        -1.8423    0.7420   -0.0316 H       1  PRO1          0.14
     13 HD          2.2141    2.0392    0.5437 H       1  PRO1       0.15000000000000002
     14 HA         -0.2628   -1.0617    1.4362 H       1  PRO1       0.10999999999999999
@<TRIPOS>BOND
     1     8     5   ar
     2     9     1    1
     3     5     7   ar
     4     5     4    1
     5    12     2    1
     6     1     3    1
     7     1    10    1
     8     1     2    1
     9     3    13    1
    10     3     6    1
    11     2     4    1
    12     2    11    1
    13     4     6    1
    14     4    14    1
