@<TRIPOS>MOLECULE
DWEXIFLNCXYYAA-QQHSWTODSA-N	6044483	-1285.0046428577214
 81 84 0 0 0
SMALL
MULLIKEN NwChem

@<TRIPOS>ATOM
      1 C           1.2571    0.0662   -4.5038 C.3     1  LIG1      -0.45999999999999996
      2 C           0.0154    2.0398   -5.4725 C.3     1  LIG1      -0.45999999999999996
      3 C          -4.3069   -1.2729   -3.0643 C.3     1  LIG1      -0.46999999999999975
      4 C          -3.1850    1.5367    0.8175 C.3     1  LIG1      -0.4900000000000002
      5 C           2.7871    2.0719   -0.0873 C.3     1  LIG1      -0.4800000000000004
      6 C           4.0982   -0.5997    4.1579 C.3     1  LIG1      -0.4900000000000002
      7 C          -1.4476   -1.4169   -4.2780 C.3     1  LIG1      -0.28000000000000025
      8 C          -1.2304   -0.1202   -5.0759 C.3     1  LIG1      -0.2599999999999998
      9 C          -1.7759   -1.2258   -2.7858 C.3     1  LIG1      -0.28000000000000025
     10 C          -0.3834    0.1247    2.7507 C.2     1  LIG1      -0.2999999999999998
     11 C          -3.4130   -1.5269   -0.0854 C.3     1  LIG1      -0.2999999999999998
     12 C          -2.4101   -1.3440    1.0818 C.3     1  LIG1      -0.2999999999999998
     13 C           0.5519    0.7147    3.7757 C.3     1  LIG1      -0.3099999999999996
     14 C           0.0294    1.5289   -0.7824 C.3     1  LIG1      -0.2999999999999998
     15 C           2.3528   -0.2796    0.7225 C.3     1  LIG1      -0.3200000000000003
     16 C          -1.4817    1.7131   -1.0129 C.3     1  LIG1      -0.33000000000000007
     17 C           2.4004    1.6961    2.3256 C.3     1  LIG1      -0.3099999999999996
     18 C           2.0448   -1.8945    3.7127 C.3     1  LIG1       -0.08000000000000007
     19 C          -0.0912    0.7941   -4.5816 C.3     1  LIG1      -0.08000000000000007
     20 C          -3.1074   -0.5072   -2.4755 C.3     1  LIG1      -0.08999999999999986
     21 C          -0.4493    0.4002    1.4370 C.2     1  LIG1      0.1900000000000004
     22 C          -3.3601   -0.2276   -0.9673 C.3     1  LIG1      -0.09999999999999964
     23 C          -1.4409   -0.2934    0.5389 C.3     1  LIG1      -0.17999999999999972
     24 C           0.4269    1.4370    0.7100 C.3     1  LIG1      -0.16999999999999993
     25 C           2.0711    0.7354    3.4741 C.3     1  LIG1      -0.11000000000000032
     26 C           3.3253   -0.8090    1.7870 C.3     1  LIG1       0.11000000000000032
     27 C          -2.3599    0.7177   -0.2031 C.3     1  LIG1      0.11000000000000032
     28 C           1.9753    1.2203    0.9114 C.3     1  LIG1      0.1299999999999999
     29 C           2.8350   -0.6359    3.2710 C.3     1  LIG1       0.08000000000000007
     30 O           1.1686   -2.4534    2.7285 O.3     1  LIG1      -0.6899999999999995
     31 O           3.6894   -2.1568    1.5085 O.3     1  LIG1      -0.6999999999999993
     32 H           1.5396   -0.3383   -5.4848 H       1  LIG1          0.14
     33 H           1.2325   -0.7664   -3.7919 H       1  LIG1       0.15000000000000002
     34 H           2.0521    0.7494   -4.1824 H       1  LIG1          0.14
     35 H           0.2862    1.7653   -6.4997 H       1  LIG1          0.14
     36 H          -0.9362    2.5826   -5.5132 H       1  LIG1          0.14
     37 H           0.7811    2.7300   -5.0994 H       1  LIG1          0.14
     38 H          -4.3576   -2.2955   -2.6712 H       1  LIG1          0.14
     39 H          -5.2517   -0.7743   -2.8194 H       1  LIG1          0.14
     40 H          -4.2472   -1.3435   -4.1549 H       1  LIG1       0.15000000000000002
     41 H          -3.8043    2.2700    0.2877 H       1  LIG1       0.15000000000000002
     42 H          -3.8576    0.9126    1.4147 H       1  LIG1       0.15000000000000002
     43 H          -2.5320    2.0805    1.5088 H       1  LIG1       0.15000000000000002
     44 H           2.5499    3.1390    0.0046 H       1  LIG1          0.14
     45 H           3.8589    1.9509    0.1122 H       1  LIG1       0.15000000000000002
     46 H           2.6178    1.7699   -1.1246 H       1  LIG1       0.15000000000000002
     47 H           3.8381   -0.6588    5.2235 H       1  LIG1       0.15000000000000002
     48 H           4.7611   -1.4341    3.9113 H       1  LIG1       0.15000000000000002
     49 H           4.6546    0.3327    4.0044 H       1  LIG1       0.15000000000000002
     50 H          -2.2434   -1.9970   -4.7611 H       1  LIG1          0.13
     51 H          -0.5473   -2.0399   -4.3531 H       1  LIG1          0.13
     52 H          -2.1632    0.4614   -5.0899 H       1  LIG1          0.13
     53 H          -1.0298   -0.3866   -6.1240 H       1  LIG1          0.12
     54 H          -1.7839   -2.2159   -2.3107 H       1  LIG1          0.13
     55 H          -0.9513   -0.6780   -2.3194 H       1  LIG1       0.15000000000000002
     56 H          -1.1111   -0.5820    3.1460 H       1  LIG1       0.15000000000000002
     57 H          -3.1290   -2.4013   -0.6772 H       1  LIG1       0.15000000000000002
     58 H          -4.4255   -1.7241    0.2798 H       1  LIG1          0.14
     59 H          -1.9066   -2.2775    1.3568 H       1  LIG1          0.14
     60 H          -2.9217   -0.9814    1.9792 H       1  LIG1       0.15000000000000002
     61 H           0.3828    0.2031    4.7291 H       1  LIG1       0.15000000000000002
     62 H           0.2659    1.7633    3.9587 H       1  LIG1       0.15000000000000002
     63 H           0.3945    0.6383   -1.3093 H       1  LIG1       0.16000000000000003
     64 H           0.5413    2.3771   -1.2435 H       1  LIG1       0.15000000000000002
     65 H           2.8211   -0.4405   -0.2542 H       1  LIG1          0.14
     66 H           1.4607   -0.9114    0.7369 H       1  LIG1          0.14
     67 H          -1.6851    1.6532   -2.0850 H       1  LIG1       0.16000000000000003
     68 H          -1.7410    2.7393   -0.7260 H       1  LIG1          0.14
     69 H           3.4851    1.8636    2.3239 H       1  LIG1          0.14
     70 H           1.9519    2.6779    2.5242 H       1  LIG1          0.13
     71 H           2.7593   -2.6924    3.9249 H       1  LIG1       0.15000000000000002
     72 H           1.5033   -1.6913    4.6490 H       1  LIG1       0.15000000000000002
     73 H          -0.3385    1.1370   -3.5704 H       1  LIG1       0.15000000000000002
     74 H          -3.0857    0.4729   -2.9737 H       1  LIG1          0.13
     75 H          -4.3453    0.2553   -0.9374 H       1  LIG1          0.12
     76 H          -0.8506   -0.8021   -0.2375 H       1  LIG1       0.15000000000000002
     77 H           0.1893    2.4173    1.1558 H       1  LIG1          0.14
     78 H           2.5017    1.1870    4.3785 H       1  LIG1          0.13
     79 H           4.2638   -0.2496    1.6891 H       1  LIG1          0.14
     80 H           0.5375   -1.7580    2.4699 H       1  LIG1       0.43000000000000005
     81 H           2.8564   -2.6614    1.5650 H       1  LIG1       0.42000000000000004
@<TRIPOS>BOND
     1    35     2    1
     2    53     8    1
     3    36     2    1
     4    32     1    1
     5     2    37    1
     6     2    19    1
     7    52     8    1
     8     8    19    1
     9     8     7    1
    10    50     7    1
    11    19     1    1
    12    19    73    1
    13     1    34    1
    14     1    33    1
    15    51     7    1
    16     7     9    1
    17    40     3    1
    18     3    39    1
    19     3    38    1
    20     3    20    1
    21    74    20    1
    22     9    20    1
    23     9    55    1
    24     9    54    1
    25    20    22    1
    26    67    16    1
    27    63    14    1
    28    64    14    1
    29    46     5    1
    30    16    14    1
    31    16    68    1
    32    16    27    1
    33    22    75    1
    34    22    27    1
    35    22    11    1
    36    14    24    1
    37    57    11    1
    38    65    15    1
    39    76    23    1
    40    27    23    1
    41    27     4    1
    42     5    44    1
    43     5    45    1
    44     5    28    1
    45    11    58    1
    46    11    12    1
    47    41     4    1
    48    23    12    1
    49    23    21    1
    50    24    28    1
    51    24    77    1
    52    24    21    1
    53    15    66    1
    54    15    28    1
    55    15    26    1
    56     4    42    1
    57     4    43    1
    58    28    17    1
    59    12    59    1
    60    12    60    1
    61    21    10    2
    62    31    81    1
    63    31    26    1
    64    79    26    1
    65    26    29    1
    66    69    17    1
    67    17    70    1
    68    17    25    1
    69    80    30    1
    70    30    18    1
    71    10    56    1
    72    10    13    1
    73    29    25    1
    74    29    18    1
    75    29     6    1
    76    25    13    1
    77    25    78    1
    78    18    71    1
    79    18    72    1
    80    13    62    1
    81    13    61    1
    82    48     6    1
    83    49     6    1
    84     6    47    1
