@<TRIPOS>MOLECULE
DWVYYKFZEDMMPU-PUXRVUTHSA-N	6044484	-1323.0981360738483
 82 85 0 0 0
SMALL
MULLIKEN NwChem

@<TRIPOS>ATOM
      1 C          -0.5422   -4.2086   -3.6443 C.3     1  LIG1            -0.54
      2 C           1.4874   -3.1648   -4.7466 C.3     1  LIG1      -0.5300000000000002
      3 C          -2.0875    1.8293   -4.3346 C.3     1  LIG1      -0.4800000000000004
      4 C           3.2802   -0.1100    4.7597 C.3     1  LIG1      -0.45999999999999996
      5 C           1.2009    0.5848    5.9177 C.3     1  LIG1      -0.4800000000000004
      6 C          -1.0995    1.4862    3.7547 C.3     1  LIG1      -0.4900000000000002
      7 C           0.1621    1.5478   -1.9809 C.3     1  LIG1         -0.5
      8 C          -2.2522   -2.0127   -5.1039 C.3     1  LIG1      -0.3200000000000003
      9 C          -0.7660   -2.2298   -5.2087 C.2     1  LIG1      -0.16999999999999993
     10 C          -2.6386   -0.5219   -4.9129 C.3     1  LIG1      -0.2699999999999996
     11 C           0.5274   -1.2213    1.6754 C.3     1  LIG1      -0.33000000000000007
     12 C           0.7726   -0.9257    3.1561 C.3     1  LIG1      -0.29000000000000004
     13 C          -0.9753    2.2558    0.6729 C.3     1  LIG1      -0.3600000000000003
     14 C          -2.2509   -1.3295   -1.9971 C.3     1  LIG1      -0.3200000000000003
     15 C           1.4462    3.2813    4.2344 C.3     1  LIG1      -0.29000000000000004
     16 C           0.7823    2.9361    2.8934 C.3     1  LIG1      -0.3099999999999996
     17 C          -1.8207    1.7310   -0.4806 C.3     1  LIG1      -0.2999999999999998
     18 C          -1.7917   -1.3849   -0.5409 C.3     1  LIG1      -0.29000000000000004
     19 C           0.6104   -1.1549   -1.2924 C.3     1  LIG1       -0.07000000000000028
     20 C          -0.0134   -3.1445   -4.5769 C.2     1  LIG1      0.16999999999999993
     21 C          -1.8043    0.3631   -3.9487 C.3     1  LIG1      -0.08000000000000007
     22 C          -2.0826    0.1464   -2.4401 C.3     1  LIG1      -0.08999999999999986
     23 C          -0.2783    1.1448    1.4341 C.2     1  LIG1      0.05999999999999961
     24 C          -0.1145   -0.0832    0.8975 C.2     1  LIG1      0.08000000000000007
     25 C           1.2912    0.5070    3.3095 C.3     1  LIG1      -0.1299999999999999
     26 C           2.5506    2.2847    4.6080 C.3     1  LIG1       0.1299999999999999
     27 C           2.0444    0.8115    4.6458 C.3     1  LIG1      0.08000000000000007
     28 C           0.1734    1.5075    2.8669 C.3     1  LIG1      0.04999999999999982
     29 C          -1.0405    0.7703   -1.3993 C.3     1  LIG1      0.09999999999999964
     30 C          -0.5531   -0.4538   -0.5284 C.3     1  LIG1       0.009999999999999787
     31 O           0.7341   -2.5266   -0.8966 O.3     1  LIG1      -0.6600000000000001
     32 O           3.6794    2.4506    3.7393 O.3     1  LIG1      -0.6899999999999995
     33 H          -0.1546   -5.1950   -3.9335 H       1  LIG1       0.15000000000000002
     34 H          -1.6326   -4.2717   -3.6368 H       1  LIG1       0.16000000000000003
     35 H          -0.2106   -4.0165   -2.6156 H       1  LIG1       0.17000000000000004
     36 H           1.8416   -2.3717   -5.4131 H       1  LIG1       0.16000000000000003
     37 H           1.9879   -3.0349   -3.7746 H       1  LIG1       0.17000000000000004
     38 H           1.8343   -4.1288   -5.1438 H       1  LIG1       0.15000000000000002
     39 H          -3.1682    2.0223   -4.3066 H       1  LIG1          0.14
     40 H          -1.6140    2.5445   -3.6594 H       1  LIG1       0.15000000000000002
     41 H          -1.7388    2.0476   -5.3510 H       1  LIG1          0.14
     42 H           3.8770   -0.1066    3.8436 H       1  LIG1          0.14
     43 H           3.9307    0.2353    5.5716 H       1  LIG1          0.14
     44 H           2.9913   -1.1418    4.9836 H       1  LIG1       0.15000000000000002
     45 H           1.8457    0.6392    6.8033 H       1  LIG1          0.14
     46 H           0.4039    1.3178    6.0520 H       1  LIG1       0.16000000000000003
     47 H           0.7395   -0.4085    5.9085 H       1  LIG1       0.15000000000000002
     48 H          -1.4870    0.4727    3.8833 H       1  LIG1       0.15000000000000002
     49 H          -0.9347    1.9117    4.7461 H       1  LIG1       0.15000000000000002
     50 H          -1.8935    2.0764    3.2856 H       1  LIG1       0.15000000000000002
     51 H           0.9331    1.6694   -1.2131 H       1  LIG1       0.15000000000000002
     52 H           0.6283    1.0514   -2.8350 H       1  LIG1       0.15000000000000002
     53 H          -0.1252    2.5522   -2.3047 H       1  LIG1       0.15000000000000002
     54 H          -2.7358   -2.3499   -6.0339 H       1  LIG1          0.14
     55 H          -2.6805   -2.6266   -4.3098 H       1  LIG1       0.15000000000000002
     56 H          -0.2514   -1.5280   -5.8689 H       1  LIG1          0.12
     57 H          -2.5700   -0.0465   -5.9012 H       1  LIG1          0.13
     58 H          -3.6995   -0.4637   -4.6310 H       1  LIG1          0.13
     59 H          -0.0785   -2.1270    1.5626 H       1  LIG1          0.14
     60 H           1.4856   -1.4767    1.2038 H       1  LIG1       0.15000000000000002
     61 H           1.4878   -1.6547    3.5489 H       1  LIG1          0.14
     62 H          -0.1499   -1.0624    3.7312 H       1  LIG1          0.14
     63 H          -0.2376    2.9838    0.3073 H       1  LIG1       0.15000000000000002
     64 H          -1.6230    2.8258    1.3504 H       1  LIG1       0.15000000000000002
     65 H          -3.2768   -1.6873   -2.1377 H       1  LIG1          0.13
     66 H          -1.6016   -1.9780   -2.5837 H       1  LIG1       0.17000000000000004
     67 H           1.8936    4.2803    4.1794 H       1  LIG1          0.14
     68 H           0.6933    3.3186    5.0297 H       1  LIG1       0.15000000000000002
     69 H           0.0183    3.6878    2.6695 H       1  LIG1          0.14
     70 H           1.5272    3.0195    2.0879 H       1  LIG1          0.14
     71 H          -2.2084    2.5646   -1.0817 H       1  LIG1          0.13
     72 H          -2.6954    1.2140   -0.0675 H       1  LIG1          0.14
     73 H          -1.5571   -2.4001   -0.2151 H       1  LIG1          0.14
     74 H          -2.5533   -0.9843    0.1376 H       1  LIG1          0.13
     75 H           0.4251   -1.1129   -2.3724 H       1  LIG1       0.15000000000000002
     76 H           1.5473   -0.6159   -1.0943 H       1  LIG1          0.14
     77 H          -0.7476    0.1472   -4.1487 H       1  LIG1          0.13
     78 H          -3.0423    0.6473   -2.2486 H       1  LIG1          0.12
     79 H           2.0670    0.6168    2.5311 H       1  LIG1          0.12
     80 H           2.9476    2.5352    5.5994 H       1  LIG1          0.13
     81 H           1.5119   -2.8874   -1.3483 H       1  LIG1       0.43000000000000005
     82 H           3.3937    2.2392    2.8374 H       1  LIG1       0.42000000000000004
@<TRIPOS>BOND
     1    54     8    1
     2    57    10    1
     3    56     9    1
     4    36     2    1
     5    41     3    1
     6     9     8    1
     7     9    20    2
     8    38     2    1
     9     8    10    1
    10     8    55    1
    11    10    58    1
    12    10    21    1
    13     2    20    1
    14     2    37    1
    15    20     1    1
    16     3    39    1
    17     3    21    1
    18     3    40    1
    19    77    21    1
    20    21    22    1
    21    33     1    1
    22     1    34    1
    23     1    35    1
    24    52     7    1
    25    66    14    1
    26    22    78    1
    27    22    14    1
    28    22    29    1
    29    75    19    1
    30    53     7    1
    31    65    14    1
    32    14    18    1
    33     7    29    1
    34     7    51    1
    35    29    30    1
    36    29    17    1
    37    81    31    1
    38    19    76    1
    39    19    31    1
    40    19    30    1
    41    71    17    1
    42    18    30    1
    43    18    73    1
    44    18    74    1
    45    30    24    1
    46    17    72    1
    47    17    13    1
    48    63    13    1
    49    13    64    1
    50    13    23    1
    51    24    23    2
    52    24    11    1
    53    60    11    1
    54    23    28    1
    55    59    11    1
    56    11    12    1
    57    70    16    1
    58    79    25    1
    59    69    16    1
    60    82    32    1
    61    28    16    1
    62    28    25    1
    63    28     6    1
    64    16    15    1
    65    12    25    1
    66    12    61    1
    67    12    62    1
    68    50     6    1
    69    25    27    1
    70    32    26    1
    71     6    48    1
    72     6    49    1
    73    42     4    1
    74    67    15    1
    75    15    26    1
    76    15    68    1
    77    26    27    1
    78    26    80    1
    79    27     4    1
    80    27     5    1
    81     4    44    1
    82     4    43    1
    83    47     5    1
    84     5    46    1
    85     5    45    1
