@<TRIPOS>MOLECULE
DYOSCPIQEYRQEO-LPHQIWJTSA-N	6044485	-1822.310819002248
 103 103 0 0 0
SMALL
MULLIKEN NwChem

@<TRIPOS>ATOM
      1 C           2.8479   -5.3148    0.5274 C.3     1  LIG1            -0.54
      2 C           3.0938   -4.5655    2.9426 C.3     1  LIG1        -0.54
      3 C           5.4092   -1.2250   -2.3547 C.3     1  LIG1      -0.5499999999999998
      4 C           3.7527    1.3861    2.7947 C.3     1  LIG1        -0.54
      5 C          -0.5616   -3.3613    1.9333 C.3     1  LIG1        -0.54
      6 C           1.6819   -1.9054   -3.1350 C.3     1  LIG1      -0.5499999999999998
      7 C           1.2057    2.2518   -1.0282 C.3     1  LIG1      -0.5499999999999998
      8 C          -3.1231   -0.0223    0.4520 C.3     1  LIG1      -0.5999999999999996
      9 C          -8.0649    3.3362    0.8003 C.3     1  LIG1       -0.23000000000000043
     10 C          -5.9038    5.7971   -0.1701 C.3     1  LIG1       -0.23000000000000043
     11 C           5.7502   -4.3065    0.0557 C.3     1  LIG1      -0.3099999999999996
     12 C           5.6444    0.2333    0.3270 C.3     1  LIG1      -0.3200000000000003
     13 C           1.5338   -0.8267    2.6335 C.3     1  LIG1      -0.33000000000000007
     14 C          -0.3678   -3.0095   -1.1357 C.3     1  LIG1      -0.33000000000000007
     15 C           0.7296    0.9650   -3.8266 C.3     1  LIG1      -0.3099999999999996
     16 C           4.9680   -4.2300    1.3504 C.2     1  LIG1      -0.20000000000000018
     17 C           5.2807   -3.4221   -1.1204 C.3     1  LIG1      -0.33000000000000007
     18 C           5.5721   -1.2646    0.1538 C.2     1  LIG1      -0.1900000000000004
     19 C           4.2367    0.8894    0.3468 C.3     1  LIG1      -0.33000000000000007
     20 C           2.4722   -0.3972    1.5374 C.2     1  LIG1      -0.17999999999999972
     21 C           0.0580   -0.8909    2.1501 C.3     1  LIG1      -0.3600000000000003
     22 C          -0.1626   -1.9326   -0.0979 C.2     1  LIG1      -0.17999999999999972
     23 C          -0.7436   -2.4396   -2.5242 C.3     1  LIG1      -0.33999999999999986
     24 C          -0.1357   -0.1819   -3.3648 C.2     1  LIG1      -0.1900000000000004
     25 C           0.1581    2.3304   -3.3722 C.3     1  LIG1      -0.34999999999999964
     26 C          -1.2571    2.5387   -1.3390 C.2     1  LIG1      -0.1900000000000004
     27 C          -1.5721    2.5355    0.1481 C.3     1  LIG1      -0.46999999999999975
     28 C           3.7252   -4.6778    1.5774 C.2     1  LIG1      0.17999999999999972
     29 C           5.4450   -1.9176   -1.0108 C.2     1  LIG1      0.16000000000000014
     30 C           3.4100    0.5623    1.5757 C.2     1  LIG1      0.16999999999999993
     31 C          -0.2240   -2.0648    1.2348 C.2     1  LIG1      0.16999999999999993
     32 C           0.2528   -1.4247   -3.0455 C.2     1  LIG1      0.17999999999999972
     33 C          -0.0346    2.4104   -1.8752 C.2     1  LIG1      0.17999999999999972
     34 C          -3.7727    1.3312    0.6430 C.ar    1  LIG1       0.08000000000000007
     35 C          -3.0581    2.5301    0.4459 C.ar    1  LIG1       0.05999999999999961
     36 C          -5.1231    1.3914    1.0089 C.ar    1  LIG1       0.20000000000000018
     37 C          -3.7349    3.7525    0.5151 C.ar    1  LIG1       0.23000000000000043
     38 C          -5.7959    2.6239    1.1159 C.ar    1  LIG1       0.28000000000000025
     39 C          -5.0977    3.8116    0.8555 C.ar    1  LIG1       0.2699999999999996
     40 O          -5.8778    0.2676    1.2447 O.3     1  LIG1      -0.6899999999999995
     41 O          -3.0958    4.9600    0.3101 O.3     1  LIG1      -0.6899999999999995
     42 O          -7.0983    2.5772    1.5232 O.3     1  LIG1      -0.5500000000000007
     43 O          -5.7437    5.0161    1.0177 O.3     1  LIG1      -0.5500000000000007
     44 H           2.0194   -4.6418    0.2631 H       1  LIG1       0.18000000000000005
     45 H           2.3925   -6.2402    0.9065 H       1  LIG1       0.16000000000000003
     46 H           3.3880   -5.5590   -0.3911 H       1  LIG1       0.16000000000000003
     47 H           3.7482   -4.0602    3.6598 H       1  LIG1       0.16000000000000003
     48 H           2.1508   -4.0074    2.8929 H       1  LIG1       0.18000000000000005
     49 H           2.8449   -5.5581    3.3448 H       1  LIG1       0.16000000000000003
     50 H           5.4567   -0.1355   -2.2855 H       1  LIG1       0.16000000000000003
     51 H           6.2420   -1.5608   -2.9881 H       1  LIG1       0.16000000000000003
     52 H           4.4888   -1.4831   -2.8944 H       1  LIG1       0.17000000000000004
     53 H           3.5876    2.4546    2.5983 H       1  LIG1       0.16000000000000003
     54 H           3.1763    1.1130    3.6815 H       1  LIG1       0.16000000000000003
     55 H           4.8163    1.2803    3.0488 H       1  LIG1       0.16000000000000003
     56 H          -0.4355   -4.2394    1.2946 H       1  LIG1       0.16000000000000003
     57 H           0.0621   -3.5052    2.8235 H       1  LIG1       0.17000000000000004
     58 H          -1.6027   -3.3472    2.2873 H       1  LIG1       0.16000000000000003
     59 H           1.7270   -2.9026   -3.5926 H       1  LIG1       0.16000000000000003
     60 H           2.3134   -1.2398   -3.7287 H       1  LIG1       0.17000000000000004
     61 H           2.1349   -1.9987   -2.1380 H       1  LIG1       0.18000000000000005
     62 H           1.1160    2.7478   -0.0565 H       1  LIG1       0.17000000000000004
     63 H           1.4106    1.1924   -0.8235 H       1  LIG1       0.18999999999999995
     64 H           2.0902    2.6574   -1.5343 H       1  LIG1       0.16000000000000003
     65 H          -2.7835   -0.4741    1.3949 H       1  LIG1       0.18999999999999995
     66 H          -3.8157   -0.7299   -0.0233 H       1  LIG1       0.17000000000000004
     67 H          -2.2508    0.0285   -0.2007 H       1  LIG1       0.18000000000000005
     68 H          -8.0739    4.3825    1.1174 H       1  LIG1       0.17000000000000004
     69 H          -7.8786    3.2859   -0.2812 H       1  LIG1       0.16000000000000003
     70 H          -9.0319    2.8738    1.0169 H       1  LIG1       0.17000000000000004
     71 H          -4.9368    6.0964   -0.5834 H       1  LIG1       0.17000000000000004
     72 H          -6.4734    5.2427   -0.9293 H       1  LIG1       0.16000000000000003
     73 H          -6.4681    6.6846    0.1267 H       1  LIG1       0.17000000000000004
     74 H           6.7988   -4.0628    0.2640 H       1  LIG1          0.14
     75 H           5.7462   -5.3447   -0.3051 H       1  LIG1       0.15000000000000002
     76 H           6.1730    0.4723    1.2583 H       1  LIG1          0.14
     77 H           6.2281    0.6950   -0.4785 H       1  LIG1       0.15000000000000002
     78 H           1.8254   -1.8175    3.0096 H       1  LIG1       0.15000000000000002
     79 H           1.5900   -0.1473    3.4901 H       1  LIG1       0.15000000000000002
     80 H           0.5484   -3.6101   -1.2385 H       1  LIG1       0.17000000000000004
     81 H          -1.1498   -3.7124   -0.8239 H       1  LIG1       0.15000000000000002
     82 H           1.7520    0.8581   -3.4455 H       1  LIG1       0.16000000000000003
     83 H           0.8119    0.9746   -4.9244 H       1  LIG1       0.15000000000000002
     84 H           5.4936   -3.7843    2.1945 H       1  LIG1          0.13
     85 H           5.8281   -3.7564   -2.0150 H       1  LIG1          0.14
     86 H           4.2233   -3.6344   -1.3400 H       1  LIG1       0.16000000000000003
     87 H           5.5494   -1.8396    1.0739 H       1  LIG1          0.13
     88 H           4.3580    1.9808    0.2799 H       1  LIG1          0.14
     89 H           3.7078    0.5726   -0.5589 H       1  LIG1       0.15000000000000002
     90 H           2.3443   -0.9371    0.5993 H       1  LIG1          0.12
     91 H          -0.5967   -0.9503    3.0311 H       1  LIG1          0.14
     92 H          -0.1782    0.0527    1.6453 H       1  LIG1       0.17000000000000004
     93 H           0.0691   -0.9456   -0.4980 H       1  LIG1          0.14
     94 H          -0.8155   -3.2819   -3.2281 H       1  LIG1          0.14
     95 H          -1.7397   -1.9837   -2.4681 H       1  LIG1          0.14
     96 H          -1.1950    0.0579   -3.2629 H       1  LIG1          0.13
     97 H           0.8453    3.1224   -3.7045 H       1  LIG1          0.14
     98 H          -0.7994    2.5048   -3.8789 H       1  LIG1       0.15000000000000002
     99 H          -2.1176    2.6144   -2.0040 H       1  LIG1          0.14
    100 H          -1.0956    1.6735    0.6259 H       1  LIG1       0.19999999999999996
    101 H          -1.1100    3.4040    0.6436 H       1  LIG1       0.17000000000000004
    102 H          -5.2796   -0.4854    1.3527 H       1  LIG1       0.44999999999999996
    103 H          -2.3072    4.8031   -0.2308 H       1  LIG1       0.44999999999999996
@<TRIPOS>BOND
     1    83    15    1
     2    98    25    1
     3    15    82    1
     4    15    25    1
     5    15    24    1
     6    60     6    1
     7    97    25    1
     8    59     6    1
     9    25    33    1
    10    24    96    1
    11    24    32    2
    12    94    23    1
    13     6    32    1
    14     6    61    1
    15    32    23    1
    16    51     3    1
    17    52     3    1
    18    23    95    1
    19    23    14    1
    20     3    50    1
    21     3    29    1
    22    85    17    1
    23    99    26    1
    24    33    26    2
    25    33     7    1
    26    64     7    1
    27    86    17    1
    28    26    27    1
    29    80    14    1
    30    14    81    1
    31    14    22    1
    32    17    29    1
    33    17    11    1
    34     7    63    1
    35     7    62    1
    36    29    18    2
    37    72    10    1
    38    71    10    1
    39    89    19    1
    40    93    22    1
    41    77    12    1
    42    46     1    1
    43    75    11    1
    44    69     9    1
    45   103    41    1
    46    67     8    1
    47    10    73    1
    48    10    43    1
    49    22    31    2
    50    66     8    1
    51    11    74    1
    52    11    16    1
    53    27    35    1
    54    27   100    1
    55    27   101    1
    56    18    12    1
    57    18    87    1
    58    44     1    1
    59    88    19    1
    60    41    37    1
    61    12    19    1
    62    12    76    1
    63    19    30    1
    64    35    37   ar
    65    35    34   ar
    66     8    34    1
    67     8    65    1
    68    37    39   ar
    69     1    45    1
    70     1    28    1
    71    90    20    1
    72    34    36   ar
    73     9    70    1
    74     9    68    1
    75     9    42    1
    76    39    43    1
    77    39    38   ar
    78    36    38   ar
    79    36    40    1
    80    38    42    1
    81    31     5    1
    82    31    21    1
    83    40   102    1
    84    56     5    1
    85    16    28    2
    86    16    84    1
    87    20    30    2
    88    20    13    1
    89    30     4    1
    90    28     2    1
    91    92    21    1
    92     5    58    1
    93     5    57    1
    94    21    13    1
    95    21    91    1
    96    53     4    1
    97    13    78    1
    98    13    79    1
    99     4    55    1
   100     4    54    1
   101    48     2    1
   102     2    49    1
   103     2    47    1
