@<TRIPOS>MOLECULE
DZWHYPVPTJPQQX-MYCGWMCTSA-M	6044486	-2171.8999546467985
 123 123 0 0 0
SMALL
MULLIKEN NwChem

@<TRIPOS>ATOM
      1 C           6.2624   -0.3221   -0.1677 C.3     1  LIG1            -0.54
      2 C           6.8771   -0.3430   -2.6400 C.3     1  LIG1        -0.54
      3 C           3.2576   -5.0930    0.4552 C.3     1  LIG1        -0.54
      4 C           2.2429   -2.5133   -5.1010 C.3     1  LIG1        -0.54
      5 C           4.0223    2.3191   -1.4495 C.3     1  LIG1      -0.5499999999999998
      6 C           1.7287   -1.8698    1.0409 C.3     1  LIG1      -0.5499999999999998
      7 C          -1.2948   -1.3467   -2.7423 C.3     1  LIG1      -0.5499999999999998
      8 C           0.0065    4.1055   -2.4026 C.3     1  LIG1        -0.54
      9 C           0.4465    3.1652    3.7703 C.3     1  LIG1        -0.54
     10 C          -7.2075    2.9917    1.7861 C.3     1  LIG1       -0.23000000000000043
     11 C           6.6617   -3.3833   -0.1582 C.3     1  LIG1      -0.2999999999999998
     12 C           2.8894   -4.4886   -2.5560 C.3     1  LIG1      -0.3200000000000003
     13 C           2.8280    0.2416   -3.7219 C.3     1  LIG1      -0.33000000000000007
     14 C           2.3549    1.1611    0.8877 C.3     1  LIG1      -0.33000000000000007
     15 C          -1.3255   -2.0480    0.3951 C.3     1  LIG1      -0.33000000000000007
     16 C          -2.2077    1.6237   -2.7810 C.3     1  LIG1      -0.3099999999999996
     17 C          -0.0132    4.2721    0.6269 C.3     1  LIG1      -0.3200000000000003
     18 C           6.8189   -2.4666   -1.3538 C.2     1  LIG1      -0.20000000000000018
     19 C           5.2524   -3.5368    0.4636 C.3     1  LIG1      -0.33999999999999986
     20 C           3.9960   -3.9649   -1.6770 C.2     1  LIG1      -0.17999999999999972
     21 C           1.7737   -3.4307   -2.7705 C.3     1  LIG1      -0.33999999999999986
     22 C           2.4692   -1.0589   -3.0522 C.2     1  LIG1      -0.20000000000000018
     23 C           2.1807    1.4680   -3.0171 C.3     1  LIG1      -0.34999999999999964
     24 C           1.9403    1.2251   -0.5642 C.2     1  LIG1      -0.16999999999999993
     25 C           1.2587    0.5422    1.7858 C.3     1  LIG1      -0.34999999999999964
     26 C          -0.5884   -0.8813    0.9910 C.2     1  LIG1      -0.17999999999999972
     27 C          -2.4950   -1.5643   -0.4940 C.3     1  LIG1      -0.3600000000000003
     28 C          -2.4343    0.6214   -1.6702 C.2     1  LIG1      -0.20000000000000018
     29 C          -2.3474    3.0886   -2.3039 C.3     1  LIG1      -0.33999999999999986
     30 C          -1.1197    3.6777   -0.2097 C.2     1  LIG1      -0.1900000000000004
     31 C          -0.5170    4.7421    2.0148 C.3     1  LIG1      -0.33999999999999986
     32 C          -1.9824    3.0393    3.0797 C.2     1  LIG1      -0.17999999999999972
     33 C          -2.4151    1.8716    3.9401 C.3     1  LIG1      -0.3700000000000001
     34 C          -3.5627   -0.2193    3.0686 C.2     1  LIG1      -0.2599999999999998
     35 C          -5.8901   -0.1695    2.3704 C.2     1  LIG1      -0.2599999999999998
     36 C           6.6713   -1.1351   -1.3735 C.2     1  LIG1      0.16999999999999993
     37 C           4.1635   -4.2025   -0.3667 C.2     1  LIG1      0.16999999999999993
     38 C           2.1877   -2.2424   -3.6180 C.2     1  LIG1      0.17999999999999972
     39 C           2.6717    1.6621   -1.5996 C.2     1  LIG1      0.16999999999999993
     40 C           0.7192   -0.7686    1.2612 C.2     1  LIG1      0.16999999999999993
     41 C          -2.0834   -0.6729   -1.6470 C.2     1  LIG1      0.1900000000000004
     42 C          -1.1460    3.6205   -1.5481 C.2     1  LIG1      0.16000000000000014
     43 C          -0.7641    3.5915    2.9736 C.2     1  LIG1      0.16000000000000014
     44 C          -3.6061    1.1285    3.3671 C.2     1  LIG1       0.04999999999999982
     45 C          -4.6983   -0.9107    2.5754 C.3     1  LIG1       0.04999999999999982
     46 C          -5.9670    1.1663    2.6756 C.2     1  LIG1       0.2599999999999998
     47 C          -4.8377    1.8968    3.2352 C.2     1  LIG1       0.33000000000000007
     48 C          -4.7208   -2.3312    2.3145 C.2     1  LIG1       0.5099999999999998
     49 O          -4.9036    3.1092    3.5891 O.2     1  LIG1      -0.6999999999999993
     50 O          -5.6487   -2.9919    1.8507 O.2     1  LIG1      -0.5899999999999999
     51 O          -3.5474   -2.9976    2.6574 O.3     1  LIG1      -0.6199999999999992
     52 O          -7.2035    1.7848    2.5392 O.2     1  LIG1      -0.5600000000000005
     53 H           6.7957    0.6365   -0.1393 H       1  LIG1       0.16000000000000003
     54 H           6.4522   -0.8441    0.7750 H       1  LIG1       0.16000000000000003
     55 H           5.1906   -0.0870   -0.2072 H       1  LIG1       0.18000000000000005
     56 H           7.2279   -0.9689   -3.4656 H       1  LIG1       0.16000000000000003
     57 H           5.9420    0.1375   -2.9597 H       1  LIG1       0.18000000000000005
     58 H           7.6049    0.4643   -2.4782 H       1  LIG1       0.16000000000000003
     59 H           2.3715   -5.4336   -0.0835 H       1  LIG1       0.16000000000000003
     60 H           3.8014   -5.9791    0.8140 H       1  LIG1       0.16000000000000003
     61 H           2.9146   -4.5572    1.3494 H       1  LIG1       0.17000000000000004
     62 H           2.5574   -1.6434   -5.6818 H       1  LIG1       0.16000000000000003
     63 H           2.9489   -3.3256   -5.3264 H       1  LIG1       0.17000000000000004
     64 H           1.2616   -2.8417   -5.4736 H       1  LIG1       0.16000000000000003
     65 H           3.9755    3.3652   -1.7864 H       1  LIG1       0.16000000000000003
     66 H           4.3759    2.3192   -0.4155 H       1  LIG1       0.16000000000000003
     67 H           4.7892    1.8320   -2.0665 H       1  LIG1       0.17000000000000004
     68 H           2.3949   -1.9634    1.9082 H       1  LIG1       0.16000000000000003
     69 H           1.2566   -2.8419    0.8820 H       1  LIG1       0.16000000000000003
     70 H           2.3726   -1.6730    0.1738 H       1  LIG1       0.18000000000000005
     71 H          -1.8760   -2.1637   -3.1951 H       1  LIG1       0.16000000000000003
     72 H          -0.9923   -0.6679   -3.5416 H       1  LIG1       0.16000000000000003
     73 H          -0.3828   -1.7984   -2.3403 H       1  LIG1       0.18000000000000005
     74 H          -0.0838    5.1807   -2.6202 H       1  LIG1       0.16000000000000003
     75 H           0.9740    3.9372   -1.9207 H       1  LIG1       0.17000000000000004
     76 H           0.0249    3.5873   -3.3684 H       1  LIG1       0.16000000000000003
     77 H           0.6779    3.9143    4.5417 H       1  LIG1       0.16000000000000003
     78 H           0.3080    2.2037    4.2715 H       1  LIG1       0.16000000000000003
     79 H           1.3404    3.0882    3.1364 H       1  LIG1       0.17000000000000004
     80 H          -6.5357    3.7324    2.2261 H       1  LIG1       0.16000000000000003
     81 H          -6.9166    2.8075    0.7391 H       1  LIG1          0.14
     82 H          -8.2406    3.3578    1.8048 H       1  LIG1       0.15000000000000002
     83 H           7.0192   -4.3821   -0.4364 H       1  LIG1          0.14
     84 H           7.3280   -3.0379    0.6477 H       1  LIG1       0.15000000000000002
     85 H           3.2987   -4.7843   -3.5319 H       1  LIG1          0.14
     86 H           2.4364   -5.3903   -2.1323 H       1  LIG1          0.14
     87 H           3.9201    0.3760   -3.7276 H       1  LIG1       0.16000000000000003
     88 H           2.5168    0.2444   -4.7726 H       1  LIG1       0.15000000000000002
     89 H           3.2764    0.5659    0.9805 H       1  LIG1       0.16000000000000003
     90 H           2.6105    2.1575    1.2776 H       1  LIG1       0.16000000000000003
     91 H          -0.6515   -2.6968   -0.1787 H       1  LIG1       0.15000000000000002
     92 H          -1.7620   -2.6572    1.1971 H       1  LIG1       0.16000000000000003
     93 H          -1.2269    1.4866   -3.2577 H       1  LIG1       0.17000000000000004
     94 H          -2.9522    1.4505   -3.5752 H       1  LIG1       0.15000000000000002
     95 H           0.8003    3.5447    0.7613 H       1  LIG1       0.17000000000000004
     96 H           0.4349    5.1224    0.0966 H       1  LIG1          0.14
     97 H           7.0840   -2.9566   -2.2919 H       1  LIG1          0.13
     98 H           5.3793   -4.1171    1.3884 H       1  LIG1          0.14
     99 H           4.8833   -2.5545    0.7909 H       1  LIG1       0.16000000000000003
    100 H           4.6679   -3.2598   -2.1609 H       1  LIG1          0.12
    101 H           0.9123   -3.9224   -3.2466 H       1  LIG1          0.14
    102 H           1.4362   -3.0935   -1.7844 H       1  LIG1       0.16000000000000003
    103 H           2.4127   -0.9975   -1.9665 H       1  LIG1          0.14
    104 H           2.3947    2.3637   -3.6171 H       1  LIG1          0.14
    105 H           1.0943    1.3333   -3.0201 H       1  LIG1       0.16000000000000003
    106 H           0.9566    0.8117   -0.7794 H       1  LIG1       0.10999999999999999
    107 H           1.6789    0.4126    2.7949 H       1  LIG1          0.14
    108 H           0.4304    1.2508    1.8746 H       1  LIG1       0.16000000000000003
    109 H          -1.2236   -0.0242    1.2162 H       1  LIG1          0.12
    110 H          -3.0219   -2.4487   -0.8831 H       1  LIG1          0.14
    111 H          -3.2106   -1.0377    0.1469 H       1  LIG1       0.15000000000000002
    112 H          -3.0157    0.9949   -0.8276 H       1  LIG1          0.12
    113 H          -2.5210    3.7261   -3.1845 H       1  LIG1          0.14
    114 H          -3.2473    3.1701   -1.6821 H       1  LIG1          0.14
    115 H          -1.9743    3.2927    0.3442 H       1  LIG1          0.13
    116 H           0.2249    5.4322    2.4454 H       1  LIG1          0.14
    117 H          -1.4378    5.3214    1.8695 H       1  LIG1          0.14
    118 H          -2.8022    3.5038    2.5375 H       1  LIG1          0.13
    119 H          -1.5845    1.1730    4.1043 H       1  LIG1       0.15000000000000002
    120 H          -2.6949    2.2775    4.9284 H       1  LIG1          0.14
    121 H          -2.6398   -0.7762    3.2196 H       1  LIG1          0.14
    122 H          -6.7721   -0.6789    1.9933 H       1  LIG1          0.13
    123 H          -3.7443   -3.9195    2.4150 H       1  LIG1       0.43000000000000005
@<TRIPOS>BOND
     1    62     4    1
     2    64     4    1
     3    63     4    1
     4     4    38    1
     5    88    13    1
     6    87    13    1
     7    13    22    1
     8    13    23    1
     9    38    22    2
    10    38    21    1
    11   104    23    1
    12    94    16    1
    13    72     7    1
    14    85    12    1
    15    56     2    1
    16    76     8    1
    17    93    16    1
    18   101    21    1
    19    71     7    1
    20   113    29    1
    21    22   103    1
    22   105    23    1
    23    23    39    1
    24    57     2    1
    25    16    29    1
    26    16    28    1
    27    21    12    1
    28    21   102    1
    29     7    73    1
    30     7    41    1
    31     2    58    1
    32     2    36    1
    33    74     8    1
    34    12    86    1
    35    12    20    1
    36     8    75    1
    37     8    42    1
    38    29   114    1
    39    29    42    1
    40    97    18    1
    41   100    20    1
    42    67     5    1
    43    65     5    1
    44    20    37    2
    45    28    41    2
    46    28   112    1
    47    41    27    1
    48    39     5    1
    49    39    24    2
    50    42    30    2
    51     5    66    1
    52    36    18    2
    53    36     1    1
    54    18    11    1
    55   110    27    1
    56   106    24    1
    57    24    14    1
    58    27   111    1
    59    27    15    1
    60    83    11    1
    61    37     3    1
    62    37    19    1
    63    30   115    1
    64    30    17    1
    65    55     1    1
    66    91    15    1
    67     1    53    1
    68     1    54    1
    69    11    19    1
    70    11    84    1
    71    59     3    1
    72    96    17    1
    73    70     6    1
    74    15    26    1
    75    15    92    1
    76     3    60    1
    77     3    61    1
    78    19    99    1
    79    19    98    1
    80    17    95    1
    81    17    31    1
    82    81    10    1
    83    69     6    1
    84    14    89    1
    85    14    90    1
    86    14    25    1
    87    26   109    1
    88    26    40    2
    89     6    40    1
    90     6    68    1
    91    40    25    1
    92    25   108    1
    93    25   107    1
    94    10    82    1
    95    10    80    1
    96    10    52    1
    97    50    48    2
    98   117    31    1
    99   122    35    1
   100    31   116    1
   101    31    43    1
   102    48    45    1
   103    48    51    1
   104    35    45    1
   105    35    46    2
   106   123    51    1
   107   118    32    1
   108    52    46    1
   109    45    34    1
   110    46    47    1
   111    43    32    2
   112    43     9    1
   113    34   121    1
   114    34    44    2
   115    32    33    1
   116    79     9    1
   117    47    44    1
   118    47    49    2
   119    44    33    1
   120     9    78    1
   121     9    77    1
   122    33   119    1
   123    33   120    1
