@<TRIPOS>MOLECULE
FAQJJMHZNSSFSM-UHFFFAOYSA-M	11115256	-533.6035348000353
 16 16 0 0 0
SMALL
MULLIKEN NwChem

@<TRIPOS>ATOM
      1 C           3.0571    0.4571    0.1894 C.ar    1  LIG1      -0.13999999999999968
      2 C           2.1008    1.3971   -0.2057 C.ar    1  LIG1      -0.16000000000000014
      3 C           2.6475   -0.8164    0.5965 C.ar    1  LIG1      -0.15000000000000036
      4 C           0.7436    1.0704   -0.2010 C.ar    1  LIG1      -0.1900000000000004
      5 C           1.2918   -1.1405    0.6048 C.ar    1  LIG1      -0.17999999999999972
      6 C           0.3266   -0.2066    0.2033 C.ar    1  LIG1       0.04999999999999982
      7 C          -1.1311   -0.6370    0.1892 C.2     1  LIG1       0.33000000000000007
      8 C          -2.1420    0.2845   -0.5360 C.2     1  LIG1       0.46999999999999975
      9 O          -1.4443   -1.6754    0.7678 O.2     1  LIG1      -0.5399999999999991
     10 O          -2.2369    1.4040    0.0383 O.co2   1  LIG1      -0.6400000000000006
     11 O          -2.6993   -0.1728   -1.5508 O.co2   1  LIG1      -0.6400000000000006
     12 H           4.1148    0.7151    0.1815 H       1  LIG1       0.16000000000000003
     13 H           2.4145    2.3928   -0.5141 H       1  LIG1       0.16000000000000003
     14 H           3.3873   -1.5532    0.9058 H       1  LIG1       0.16000000000000003
     15 H          -0.0164    1.7942   -0.4773 H       1  LIG1       0.16000000000000003
     16 H           0.9435   -2.1195    0.9228 H       1  LIG1       0.15000000000000002
@<TRIPOS>BOND
     1    11     8   ar
     2     8    10   ar
     3     8     7    1
     4    13     2    1
     5    15     4    1
     6     2     4   ar
     7     2     1   ar
     8     4     6   ar
     9    12     1    1
    10     7     6    1
    11     7     9    2
    12     1     3   ar
    13     6     5   ar
    14     3     5   ar
    15     3    14    1
    16     5    16    1
