@<TRIPOS>MOLECULE
FAZBDRGXCKPVJU-MRXNPFEDSA-L	11115260	-1535.5552900405055
 58 57 0 0 0
SMALL
MULLIKEN NwChem

@<TRIPOS>ATOM
      1 C          -9.4716    2.0945    0.5846 C.3     1  LIG1      -0.45999999999999996
      2 C          -9.2900    0.5789    0.4498 C.3     1  LIG1        -0.25
      3 C          -7.8190    0.1470    0.4659 C.3     1  LIG1        -0.25
      4 C          -7.6313   -1.3702    0.3331 C.3     1  LIG1      -0.2599999999999998
      5 C          -6.1701   -1.8379    0.4221 C.3     1  LIG1      -0.2599999999999998
      6 C          -5.2762   -1.3492   -0.7278 C.3     1  LIG1      -0.2599999999999998
      7 C          -3.8649   -1.9596   -0.7335 C.3     1  LIG1      -0.2599999999999998
      8 C          -2.9933   -1.5621    0.4667 C.3     1  LIG1      -0.2599999999999998
      9 C          -1.5663   -2.1368    0.4283 C.3     1  LIG1      -0.2599999999999998
     10 C          -0.6867   -1.5962   -0.7075 C.3     1  LIG1      -0.2699999999999996
     11 C           0.7617   -2.1138   -0.6904 C.3     1  LIG1      -0.2599999999999998
     12 C           1.5714   -1.8074    0.5754 C.3     1  LIG1        -0.25
     13 C           1.7064   -0.3248    0.9680 C.3     1  LIG1       -0.33000000000000007
     14 C           3.1858    2.6645   -0.6125 C.3     1  LIG1       -0.04999999999999982
     15 C           5.5672    1.7075   -0.8656 C.3     1  LIG1       -0.040000000000000036
     16 C           4.2665    2.1590   -1.5649 C.3     1  LIG1       0.09999999999999964
     17 C           1.9509    0.6754   -0.1552 C.2     1  LIG1       0.7199999999999998
     18 O           4.5709    3.2944   -2.4296 O.3     1  LIG1      -0.6999999999999993
     19 O           1.2050    0.8630   -1.1136 O.2     1  LIG1      -0.5999999999999996
     20 O           4.8208   -1.6126    0.8959 O.3     1  LIG1      -0.7699999999999996
     21 O           5.9975   -1.2739   -1.4364 O.2     1  LIG1      -0.7699999999999996
     22 O           3.5420   -0.5562   -1.0951 O.3     1  LIG1      -0.7599999999999998
     23 O           2.7695    1.6806    0.3224 O.3     1  LIG1         -0.5
     24 O           5.4338    0.7347    0.1132 O.3     1  LIG1      -0.6300000000000008
     25 P           4.9304   -0.8621   -0.4279 P.3     1  LIG1       1.0299999999999994
     26 H         -10.5306    2.3803    0.5679 H       1  LIG1          0.14
     27 H          -8.9679    2.6246   -0.2332 H       1  LIG1          0.14
     28 H          -9.0403    2.4593    1.5252 H       1  LIG1          0.14
     29 H          -9.7576    0.2342   -0.4843 H       1  LIG1          0.13
     30 H          -9.8274    0.0702    1.2638 H       1  LIG1          0.13
     31 H          -7.3495    0.4888    1.4007 H       1  LIG1          0.13
     32 H          -7.2864    0.6608   -0.3452 H       1  LIG1          0.14
     33 H          -8.2187   -1.8666    1.1208 H       1  LIG1          0.13
     34 H          -8.0626   -1.7026   -0.6241 H       1  LIG1          0.13
     35 H          -5.7493   -1.5140    1.3831 H       1  LIG1          0.14
     36 H          -6.1504   -2.9376    0.4374 H       1  LIG1          0.13
     37 H          -5.1863   -0.2546   -0.6890 H       1  LIG1          0.14
     38 H          -5.7778   -1.5819   -1.6806 H       1  LIG1          0.13
     39 H          -3.3571   -1.6565   -1.6563 H       1  LIG1          0.13
     40 H          -3.9454   -3.0576   -0.7750 H       1  LIG1          0.13
     41 H          -2.9332   -0.4639    0.5114 H       1  LIG1          0.13
     42 H          -3.4887   -1.8827    1.3961 H       1  LIG1          0.13
     43 H          -1.0812   -1.9109    1.3859 H       1  LIG1          0.13
     44 H          -1.6224   -3.2370    0.3700 H       1  LIG1          0.12
     45 H          -0.6506   -0.5016   -0.6631 H       1  LIG1          0.14
     46 H          -1.1422   -1.8527   -1.6777 H       1  LIG1          0.12
     47 H           1.3114   -1.6686   -1.5241 H       1  LIG1          0.13
     48 H           0.7532   -3.2075   -0.8443 H       1  LIG1       0.10999999999999999
     49 H           2.5931   -2.1688    0.4374 H       1  LIG1       0.16000000000000003
     50 H           1.1447   -2.3439    1.4422 H       1  LIG1       0.10999999999999999
     51 H           2.5447   -0.2545    1.6649 H       1  LIG1          0.13
     52 H           0.7912    0.0294    1.4803 H       1  LIG1          0.14
     53 H           3.5846    3.4943   -0.0123 H       1  LIG1          0.14
     54 H           2.3306    3.0271   -1.1992 H       1  LIG1          0.14
     55 H           6.2611    1.3787   -1.6714 H       1  LIG1       0.10999999999999999
     56 H           6.0063    2.6187   -0.4086 H       1  LIG1       0.10999999999999999
     57 H           3.8562    1.3231   -2.1363 H       1  LIG1          0.14
     58 H           5.2906    2.9707   -2.9941 H       1  LIG1       0.42000000000000004
@<TRIPOS>BOND
     1    58    18    1
     2    18    16    1
     3    57    16    1
     4    38     6    1
     5    46    10    1
     6    55    15    1
     7    39     7    1
     8    16    15    1
     9    16    14    1
    10    47    11    1
    11    21    25    2
    12    54    14    1
    13    19    17    2
    14    22    25    1
    15    15    56    1
    16    15    24    1
    17    48    11    1
    18    40     7    1
    19     7     6    1
    20     7     8    1
    21     6    37    1
    22     6     5    1
    23    10    11    1
    24    10    45    1
    25    10     9    1
    26    11    12    1
    27    34     4    1
    28    14    53    1
    29    14    23    1
    30    29     2    1
    31    25    24    1
    32    25    20    1
    33    32     3    1
    34    27     1    1
    35    17    23    1
    36    17    13    1
    37     4     5    1
    38     4     3    1
    39     4    33    1
    40    44     9    1
    41     5    36    1
    42     5    35    1
    43     9     8    1
    44     9    43    1
    45    49    12    1
    46     2     3    1
    47     2     1    1
    48     2    30    1
    49     3    31    1
    50     8    41    1
    51     8    42    1
    52    26     1    1
    53    12    13    1
    54    12    50    1
    55     1    28    1
    56    13    52    1
    57    13    51    1
