@<TRIPOS>MOLECULE
FBPFZTCFMRRESA-JGWLITMVSA-N	6044490	-688.198528371554
 26 25 0 0 0
SMALL
MULLIKEN NwChem

@<TRIPOS>ATOM
      1 C           1.0314   -0.1839   -2.3818 C.3     1  LIG1       -0.07000000000000028
      2 C          -1.9187   -0.5381    2.1752 C.3     1  LIG1       -0.05999999999999961
      3 C           0.7309   -1.1925   -1.2648 C.3     1  LIG1       0.09999999999999964
      4 C          -1.0387    0.6240    1.7089 C.3     1  LIG1       0.09999999999999964
      5 C           0.5987   -0.5511    0.1255 C.3     1  LIG1       0.04999999999999982
      6 C          -0.5549    0.4624    0.2539 C.3     1  LIG1       0.09999999999999964
      7 O           2.3380    0.3882   -2.1855 O.3     1  LIG1      -0.6600000000000001
      8 O          -3.0799   -0.6464    1.3677 O.3     1  LIG1      -0.6600000000000001
      9 O           1.7900   -2.1594   -1.2472 O.3     1  LIG1      -0.6799999999999997
     10 O          -1.8603    1.7854    1.7994 O.3     1  LIG1      -0.6899999999999995
     11 O           1.8412    0.0600    0.5108 O.3     1  LIG1      -0.6999999999999993
     12 O          -0.1593    1.7446   -0.2511 O.3     1  LIG1      -0.6699999999999999
     13 H           0.3276    0.6497   -2.3703 H       1  LIG1       0.18000000000000005
     14 H           0.9833   -0.6887   -3.3553 H       1  LIG1       0.16000000000000003
     15 H          -1.3872   -1.4932    2.1070 H       1  LIG1       0.17000000000000004
     16 H          -2.1765   -0.3743    3.2333 H       1  LIG1       0.15000000000000002
     17 H          -0.2034   -1.7202   -1.4953 H       1  LIG1       0.16000000000000003
     18 H          -0.1581    0.7157    2.3676 H       1  LIG1          0.13
     19 H           0.4316   -1.3664    0.8399 H       1  LIG1       0.18000000000000005
     20 H          -1.4110    0.1523   -0.3528 H       1  LIG1       0.16000000000000003
     21 H           2.9535   -0.3614   -2.2693 H       1  LIG1       0.43000000000000005
     22 H          -3.4425    0.2567    1.3382 H       1  LIG1       0.42000000000000004
     23 H           2.3493   -1.9380   -0.4835 H       1  LIG1       0.43000000000000005
     24 H          -1.5085    2.3995    1.1288 H       1  LIG1       0.42000000000000004
     25 H           2.2242    0.4324   -0.3147 H       1  LIG1       0.43000000000000005
     26 H           0.7163    1.9165    0.1421 H       1  LIG1       0.42000000000000004
@<TRIPOS>BOND
     1    14     1    1
     2     1    13    1
     3     1     7    1
     4     1     3    1
     5    21     7    1
     6    17     3    1
     7     3     9    1
     8     3     5    1
     9     9    23    1
    10    20     6    1
    11    25    11    1
    12    12    26    1
    13    12     6    1
    14     5     6    1
    15     5    11    1
    16     5    19    1
    17     6     4    1
    18    24    10    1
    19    22     8    1
    20     8     2    1
    21     4    10    1
    22     4     2    1
    23     4    18    1
    24    15     2    1
    25     2    16    1
