@<TRIPOS>MOLECULE
FBPFZTCFMRRESA-UNTFVMJOSA-N	6044491	-688.1963663241497
 26 25 0 0 0
SMALL
MULLIKEN NwChem

@<TRIPOS>ATOM
      1 C           1.5998    0.3869   -1.6292 C.3     1  LIG1       -0.08999999999999986
      2 C           0.3904   -0.7101    2.8049 C.3     1  LIG1       -0.040000000000000036
      3 C           0.3027   -0.3685   -1.9385 C.3     1  LIG1       0.08999999999999986
      4 C           0.4169   -0.2241    1.3539 C.3     1  LIG1       0.07000000000000028
      5 C          -0.8340   -0.2009   -0.9128 C.3     1  LIG1       0.11000000000000032
      6 C          -0.7004   -0.8067    0.4913 C.3     1  LIG1       0.11000000000000032
      7 O           1.3466    1.7583   -1.3545 O.3     1  LIG1      -0.6899999999999995
      8 O           1.4989   -0.1881    3.5182 O.3     1  LIG1      -0.6699999999999999
      9 O          -0.2236    0.1139   -3.1883 O.3     1  LIG1      -0.6699999999999999
     10 O           0.3720    1.2215    1.3442 O.3     1  LIG1      -0.6699999999999999
     11 O          -2.0148   -0.8081   -1.4421 O.3     1  LIG1      -0.6999999999999993
     12 O          -1.9167   -0.5241    1.1898 O.3     1  LIG1      -0.6799999999999997
     13 H           2.2206    0.3519   -2.5308 H       1  LIG1       0.17000000000000004
     14 H           2.1667   -0.0990   -0.8250 H       1  LIG1       0.17000000000000004
     15 H          -0.5682   -0.4324    3.2669 H       1  LIG1          0.14
     16 H           0.4728   -1.8020    2.8352 H       1  LIG1       0.16000000000000003
     17 H           0.5084   -1.4344   -2.0911 H       1  LIG1       0.16000000000000003
     18 H           1.3944   -0.4829    0.9439 H       1  LIG1       0.18000000000000005
     19 H          -1.0024    0.8796   -0.7908 H       1  LIG1          0.13
     20 H          -0.5509   -1.8945    0.3956 H       1  LIG1       0.15000000000000002
     21 H           1.0410    1.8116   -0.4266 H       1  LIG1       0.43999999999999995
     22 H           1.4882    0.7705    3.3581 H       1  LIG1       0.42000000000000004
     23 H          -0.1389    1.0841   -3.1405 H       1  LIG1       0.42000000000000004
     24 H          -0.5575    1.4514    1.5275 H       1  LIG1       0.43000000000000005
     25 H          -2.0326   -0.5445   -2.3802 H       1  LIG1       0.43000000000000005
     26 H          -2.6293   -0.6837    0.5457 H       1  LIG1       0.43000000000000005
@<TRIPOS>BOND
     1     9    23    1
     2     9     3    1
     3    13     1    1
     4    25    11    1
     5    17     3    1
     6     3     1    1
     7     3     5    1
     8     1     7    1
     9     1    14    1
    10    11     5    1
    11     7    21    1
    12     5    19    1
    13     5     6    1
    14    20     6    1
    15     6    12    1
    16     6     4    1
    17    26    12    1
    18    18     4    1
    19    10     4    1
    20    10    24    1
    21     4     2    1
    22     2    16    1
    23     2    15    1
    24     2     8    1
    25    22     8    1
