@<TRIPOS>MOLECULE
FBWPWWWZWKPJFL-QMMMGPOBSA-N	6044492	-650.8852962957525
 25 25 0 0 0
SMALL
MULLIKEN NwChem

@<TRIPOS>ATOM
      1 C           1.9449   -0.6829   -2.9081 C.3     1  LIG1       -0.23000000000000043
      2 C          -0.1351    1.2374    1.2209 C.ar    1  LIG1      -0.20999999999999996
      3 C           0.9594    1.7853    0.5499 C.ar    1  LIG1      -0.21999999999999975
      4 C           0.1684   -0.8161    0.0103 C.ar    1  LIG1      -0.28000000000000025
      5 C          -2.9878   -0.7063    0.6777 C.3     1  LIG1       -0.05999999999999961
      6 C          -0.5465   -0.0708    0.9617 C.ar    1  LIG1      0.1200000000000001
      7 C           1.6675    1.0395   -0.3933 C.ar    1  LIG1       0.2999999999999998
      8 C          -1.7723   -0.6710    1.6330 C.3     1  LIG1       0.040000000000000036
      9 C           1.2614   -0.2817   -0.6693 C.ar    1  LIG1       0.33000000000000007
     10 O          -2.7683   -1.4308   -0.5168 O.3     1  LIG1      -0.6600000000000001
     11 O           2.7637    1.5228   -1.0572 O.3     1  LIG1      -0.6699999999999999
     12 O          -2.1485   -0.0020    2.8332 O.3     1  LIG1      -0.6699999999999999
     13 O           1.9526   -1.0895   -1.5361 O.3     1  LIG1      -0.5500000000000007
     14 H           2.4700   -1.4679   -3.4566 H       1  LIG1       0.17000000000000004
     15 H           2.4592    0.2727   -3.0495 H       1  LIG1       0.17000000000000004
     16 H           0.9152   -0.6046   -3.2847 H       1  LIG1       0.16000000000000003
     17 H          -0.6431    1.8254    1.9783 H       1  LIG1       0.15000000000000002
     18 H           1.2815    2.8014    0.7732 H       1  LIG1       0.17000000000000004
     19 H          -0.0957   -1.8482   -0.2015 H       1  LIG1       0.16000000000000003
     20 H          -3.8172   -1.1971    1.1953 H       1  LIG1       0.16000000000000003
     21 H          -3.2892    0.3380    0.4698 H       1  LIG1          0.14
     22 H          -1.5480   -1.7011    1.9308 H       1  LIG1       0.16000000000000003
     23 H          -2.0767   -0.9655   -1.0149 H       1  LIG1       0.42000000000000004
     24 H           2.9493    2.4204   -0.7407 H       1  LIG1       0.44999999999999996
     25 H          -2.5824    0.8304    2.5851 H       1  LIG1       0.43000000000000005
@<TRIPOS>BOND
     1    14     1    1
     2    16     1    1
     3    15     1    1
     4     1    13    1
     5    13     9    1
     6    11    24    1
     7    11     7    1
     8    23    10    1
     9     9     7   ar
    10     9     4   ar
    11    10     5    1
    12     7     3   ar
    13    19     4    1
    14     4     6   ar
    15    21     5    1
    16     3    18    1
    17     3     2   ar
    18     5    20    1
    19     5     8    1
    20     6     2   ar
    21     6     8    1
    22     2    17    1
    23     8    22    1
    24     8    12    1
    25    25    12    1
