@<TRIPOS>MOLECULE
FBZONXHGGPHHIY-UHFFFAOYSA-L	6044493	-739.8971042327594
 20 21 0 0 0
SMALL
MULLIKEN NwChem

@<TRIPOS>ATOM
      1 C          -3.3290    0.9245    0.0585 C.2     1  LIG1      -0.16999999999999993
      2 C          -2.1656    1.6904    0.0472 C.2     1  LIG1      -0.28000000000000025
      3 C          -3.2899   -0.4718    0.0437 C.3     1  LIG1       -0.29000000000000004
      4 C           1.5149    1.1036   -0.0243 C.3     1  LIG1       -0.33000000000000007
      5 C          -0.9116    1.0441    0.0201 C.2     1  LIG1       0.040000000000000036
      6 CA          1.4802   -0.3089   -0.0355 C.2     1  LIG1       0.21999999999999975
      7 C          -2.0625   -1.2256    0.0161 C.2     1  LIG1       0.34999999999999964
      8 C           0.3153    1.8691    0.0067 C.2     1  LIG1       0.3600000000000003
      9 C          -0.8171   -0.3917    0.0048 C.2     1  LIG1       0.08999999999999986
     10 C           2.7378   -1.0824   -0.0645 C.2     1  LIG1       0.5300000000000002
     11 N           0.3666   -1.0587   -0.0212 N.2     1  LIG1      -0.6799999999999997
     12 O          -2.0498   -2.4882    0.0021 O.2     1  LIG1        -0.75
     13 O           0.2846    3.1396    0.0210 O.2     1  LIG1      -0.7400000000000002
     14 OXT         2.9074   -2.2969   -0.0666 O.2     1  LIG1      -0.5600000000000005
     15 O           3.8897   -0.2876   -0.0932 O.3     1  LIG1      -0.6199999999999992
     16 H          -4.3032    1.4289    0.0792 H       1  LIG1       0.10999999999999999
     17 H          -2.1744    2.7769    0.0572 H       1  LIG1       0.08999999999999997
     18 H          -4.2105   -1.0592    0.0517 H       1  LIG1       0.07999999999999996
     19 H           2.4597    1.6396   -0.0378 H       1  LIG1       0.09999999999999998
     20 H           4.5854   -0.9682   -0.1072 H       1  LIG1       0.43000000000000005
@<TRIPOS>BOND
     1    20    15    1
     2    15    10    1
     3    14    10    2
     4    10     6    1
     5    19     4    1
     6     6     4    1
     7     6    11    2
     8     4     8    1
     9    11     9    1
    10    12     7    2
    11     9     7    1
    12     9     5    2
    13     8     5    1
    14     8    13    2
    15     7     3    1
    16     5     2    1
    17     3    18    1
    18     3     1    1
    19     2    17    1
    20     2     1    2
    21     1    16    1
