@<TRIPOS>MOLECULE
FCQGJGLSOWZZON-UHFFFAOYSA-K	11115261	-1830.2874470527606
 30 31 0 0 0
SMALL
MULLIKEN NwChem

@<TRIPOS>ATOM
      1 C          -0.2741    0.2774   -0.1187 C.3     1  LIG1       -0.1900000000000004
      2 C           0.1640   -2.1963    0.1549 C.3     1  LIG1       -0.11000000000000032
      3 C          -0.8551   -1.0817    0.2073 C.2     1  LIG1       0.28000000000000025
      4 C          -2.9898   -0.2286    0.5431 C.ar    1  LIG1       0.08999999999999986
      5 C          -2.5948    1.0070    0.0855 C.ar    1  LIG1       0.5599999999999996
      6 C          -4.4069   -0.4087    0.9498 C.ar    1  LIG1       0.45999999999999996
      7 C          -4.8841    1.8613    0.3872 C.ar    1  LIG1       0.5899999999999999
      8 N          -5.7085    2.8831    0.2208 N.pl3   1  LIG1      -0.8300000000000001
      9 N          -1.3448    1.2298   -0.4433 N.pl3   1  LIG1      -0.6799999999999997
     10 N          -2.0785   -1.3096    0.5322 N.2     1  LIG1      -0.5700000000000003
     11 N          -3.4851    2.0553    0.0842 N.ar    1  LIG1      -0.7300000000000004
     12 N          -5.2740    0.6660    0.8464 N.ar    1  LIG1      -0.6900000000000004
     13 O          -4.8130   -1.5090    1.3737 O.2     1  LIG1      -0.6799999999999997
     14 O           2.4849    0.5823   -2.1447 O.3     1  LIG1      -0.7799999999999994
     15 O           4.4555    1.7024   -0.8627 O.2     1  LIG1      -0.6899999999999995
     16 O           1.9678    2.4196   -0.4280 O.3     1  LIG1      -0.7100000000000009
     17 O           2.7470   -1.9079   -1.2332 O.2     1  LIG1      -0.7400000000000002
     18 O           3.8383   -2.1174    1.1606 O.3     1  LIG1      -0.6600000000000001
     19 O           1.3224   -1.8935    0.9370 O.3     1  LIG1      -0.5899999999999999
     20 O           2.7969    0.1115    0.3630 O.3     1  LIG1      -0.6999999999999993
     21 P           2.9900    1.3630   -0.7791 P.3     1  LIG1       1.0999999999999996
     22 P           2.8087   -1.5236    0.2451 P.3     1  LIG1       1.1400000000000006
     23 H           0.3475    0.6309    0.7135 H       1  LIG1       0.18000000000000005
     24 H           0.4052    0.2120   -0.9719 H       1  LIG1       0.17000000000000004
     25 H           0.4740   -2.3741   -0.8855 H       1  LIG1       0.17000000000000004
     26 H          -0.2972   -3.1114    0.5515 H       1  LIG1       0.15000000000000002
     27 H          -5.1531    3.6875   -0.1029 H       1  LIG1          0.27
     28 H          -0.9999    2.1833   -0.4592 H       1  LIG1          0.36
     29 H          -3.2468    2.8549   -0.4903 H       1  LIG1          0.37
     30 H           2.6227   -0.3982   -2.0010 H       1  LIG1       0.44999999999999996
@<TRIPOS>BOND
     1    14    30    1
     2    14    21    1
     3    17    22    2
     4    24     1    1
     5    25     2    1
     6    15    21    2
     7    21    16    1
     8    21    20    1
     9    29    11    1
    10    28     9    1
    11     9     1    1
    12     9     5    1
    13     1     3    1
    14     1    23    1
    15    27     8    1
    16    11     5   ar
    17    11     7   ar
    18     5     4   ar
    19     2     3    1
    20     2    26    1
    21     2    19    1
    22     3    10    2
    23     8     7    1
    24    22    20    1
    25    22    19    1
    26    22    18    1
    27     7    12   ar
    28    10     4    1
    29     4     6   ar
    30    12     6   ar
    31     6    13    2
