@<TRIPOS>MOLECULE
FCVIHFVSXHOPSW-YFKPBYRVSA-K	11115262	-1270.4431726291768
 26 25 0 0 0
SMALL
MULLIKEN NwChem

@<TRIPOS>ATOM
      1 C          -5.0943   -0.5974   -0.7717 C.3     1  LIG1       -0.5599999999999996
      2 C          -0.9221   -1.0681   -0.2209 C.3     1  LIG1      -0.2400000000000002
      3 C           0.0863    0.0653   -0.0087 C.3     1  LIG1       -0.3700000000000001
      4 C          -4.0547    0.5512   -1.0262 C.2     1  LIG1       0.4500000000000002
      5 CA         -2.3890   -0.7369    0.1716 C.3     1  LIG1       -0.019999999999999574
      6 C           1.5097   -0.2858   -0.3962 C.2     1  LIG1       0.6299999999999999
      7 C          -2.5906   -0.6529    1.7435 C.2     1  LIG1       0.4900000000000002
      8 N          -2.8228    0.4530   -0.5596 N.am    1  LIG1      -0.6100000000000003
      9 O          -4.5056    1.5310   -1.7052 O.2     1  LIG1      -0.7400000000000002
     10 O           1.8904   -1.3783   -0.7719 O.2     1  LIG1      -0.5299999999999994
     11 O          -3.7496   -0.9442    2.1687 O.co2   1  LIG1      -0.6799999999999997
     12 OXT        -1.5982   -0.3317    2.4615 O.co2   1  LIG1      -0.6699999999999999
     13 O           4.5561    0.2991   -1.6691 O.2     1  LIG1      -0.6799999999999997
     14 O           4.3708   -0.4169    0.7912 O.3     1  LIG1      -0.7300000000000004
     15 O           4.4472    2.1084    0.2471 O.3     1  LIG1      -0.6899999999999995
     16 O           2.3480    0.7907   -0.2358 O.3     1  LIG1      -0.5800000000000001
     17 P           4.0592    0.7786   -0.3407 P.3     1  LIG1       1.0399999999999991
     18 H          -6.0863   -0.2381   -1.0783 H       1  LIG1       0.10999999999999999
     19 H          -4.8591   -1.4948   -1.3711 H       1  LIG1          0.14
     20 H          -5.0877   -0.8980    0.2826 H       1  LIG1          0.14
     21 H          -0.9079   -1.3539   -1.2849 H       1  LIG1       0.10999999999999999
     22 H          -0.5849   -1.9473    0.3475 H       1  LIG1       0.10999999999999999
     23 H          -0.2428    0.9564   -0.5561 H       1  LIG1       0.17000000000000004
     24 H           0.0582    0.3387    1.0541 H       1  LIG1       0.18000000000000005
     25 HA         -2.9587   -1.6461   -0.1153 H       1  LIG1       0.07999999999999996
     26 H           3.8812   -0.1494    1.5851 H       1  LIG1       0.44999999999999996
@<TRIPOS>BOND
     1     9     4    2
     2    13    17    2
     3    19     1    1
     4    21     2    1
     5    18     1    1
     6     4     1    1
     7     4     8   am
     8    10     6    2
     9     1    20    1
    10     8     5    1
    11    23     3    1
    12     6    16    1
    13     6     3    1
    14    17    16    1
    15    17    15    1
    16    17    14    1
    17     2     3    1
    18     2     5    1
    19     2    22    1
    20    25     5    1
    21     3    24    1
    22     5     7    1
    23    14    26    1
    24     7    11   ar
    25     7    12   ar
