@<TRIPOS>MOLECULE
FCXZBWSIAGGPCB-YFKPBYRVSA-N	6044496	-590.8073138181979
 22 21 0 0 0
SMALL
MULLIKEN NwChem

@<TRIPOS>ATOM
      1 C           1.2839   -1.3412   -2.9569 C.3     1  LIG1             -0.54
      2 C           0.8324   -0.2759    1.4197 C.3     1  LIG1       -0.28000000000000025
      3 C           0.4950   -1.5577    0.6642 C.3     1  LIG1       -0.07000000000000028
      4 C           0.4646   -1.1873   -1.6980 C.2     1  LIG1       0.6200000000000001
      5 CA          0.3474    1.0264    0.7743 C.3     1  LIG1       -0.05999999999999961
      6 C          -1.1700    1.1752    0.6274 C.2     1  LIG1       0.6100000000000003
      7 N           0.8961    2.1710    1.5208 N.3     1  LIG1      -0.7599999999999998
      8 O          -0.6585   -0.7315   -1.6457 O.2     1  LIG1      -0.5199999999999996
      9 O          -1.6895    2.0847    0.0194 O.2     1  LIG1      -0.5299999999999994
     10 OXT        -1.8894    0.2635    1.3309 O.3     1  LIG1      -0.5800000000000001
     11 O           1.1642   -1.6113   -0.6204 O.3     1  LIG1      -0.46000000000000085
     12 H           0.6636   -1.1104   -3.8235 H       1  LIG1       0.18999999999999995
     13 H           1.6840   -2.3566   -3.0311 H       1  LIG1       0.19999999999999996
     14 H           2.1367   -0.6543   -2.9229 H       1  LIG1       0.20999999999999996
     15 H           0.4035   -0.3640    2.4265 H       1  LIG1       0.17000000000000004
     16 H           1.9187   -0.1951    1.5333 H       1  LIG1       0.16000000000000003
     17 H          -0.5803   -1.6657    0.5177 H       1  LIG1       0.18000000000000005
     18 H           0.8789   -2.4235    1.2095 H       1  LIG1       0.18000000000000005
     19 HA          0.7407    1.0991   -0.2441 H       1  LIG1       0.18000000000000005
     20 H1          0.5645    3.0310    1.0846 H       1  LIG1       0.32999999999999996
     21 H2          0.5178    2.1698    2.4689 H       1  LIG1       0.32999999999999996
     22 HXT        -2.8276    0.4825    1.1739 H       1  LIG1       0.43999999999999995
@<TRIPOS>BOND
     1    12     1    1
     2    13     1    1
     3     1    14    1
     4     1     4    1
     5     4     8    2
     6     4    11    1
     7    11     3    1
     8    19     5    1
     9     9     6    2
    10    17     3    1
    11     6     5    1
    12     6    10    1
    13     3    18    1
    14     3     2    1
    15     5     2    1
    16     5     7    1
    17    20     7    1
    18    22    10    1
    19     2    16    1
    20     2    15    1
    21     7    21    1
