@<TRIPOS>MOLECULE
FDGQSTZJBFJUBT-UHFFFAOYSA-N	6044497	-487.1227100411621
 14 15 0 0 0
SMALL
MULLIKEN NwChem

@<TRIPOS>ATOM
      1 C          -2.4093    0.2658   -0.0014 C.ar    1  LIG1       0.2400000000000002
      2 C           1.8970    0.9301    0.0014 C.ar    1  LIG1       0.16000000000000014
      3 C          -0.4085   -0.4419   -0.0003 C.ar    1  LIG1       0.20000000000000018
      4 C          -0.3120    0.9627   -0.0000 C.ar    1  LIG1       0.5300000000000002
      5 C           0.8261   -1.1100    0.0003 C.ar    1  LIG1           0.5
      6 N          -1.7308   -0.8536   -0.0012 N.ar    1  LIG1      -0.5599999999999996
      7 N          -1.6161    1.3975   -0.0007 N.ar    1  LIG1      -0.6399999999999997
      8 N           0.8059    1.6967    0.0008 N.ar    1  LIG1      -0.5199999999999996
      9 N           1.9643   -0.4151    0.0011 N.ar    1  LIG1      -0.5300000000000002
     10 O           0.8901   -2.4479    0.0000 O.3     1  LIG1      -0.6199999999999992
     11 H          -3.4893    0.3376   -0.0020 H       1  LIG1       0.20999999999999996
     12 H           2.8527    1.4484    0.0021 H       1  LIG1       0.18000000000000005
     13 H          -1.9156    2.3621   -0.0007 H       1  LIG1          0.39
     14 H           1.8398   -2.6713    0.0006 H       1  LIG1       0.44999999999999996
@<TRIPOS>BOND
     1    11     1    1
     2     1     6   ar
     3     1     7   ar
     4     6     3   ar
     5    13     7    1
     6     7     4   ar
     7     3     4   ar
     8     3     5   ar
     9     4     8   ar
    10    10     5    1
    11    10    14    1
    12     5     9   ar
    13     8     2   ar
    14     9     2   ar
    15     2    12    1
