@<TRIPOS>MOLECULE
FERIUCNNQQJTOY-UHFFFAOYSA-M	6044501	-307.1633691079512
 13 12 0 0 0
SMALL
MULLIKEN NwChem

@<TRIPOS>ATOM
      1 C           0.3543    1.8201   -0.9837 C.3     1  LIG1      -0.4500000000000002
      2 C          -0.0994    0.4365   -1.4694 C.3     1  LIG1        -0.25
      3 C           0.4637   -0.7024   -0.6017 C.3     1  LIG1       -0.3200000000000003
      4 C          -0.1653   -0.6278    0.8383 C.2     1  LIG1       0.5099999999999998
      5 O          -1.3100   -1.1388    0.9371 O.co2   1  LIG1      -0.6799999999999997
      6 O           0.5155   -0.0059    1.6970 O.co2   1  LIG1      -0.6799999999999997
      7 H           0.1674    1.9126    0.0905 H       1  LIG1          0.14
      8 H          -0.1575    2.6339   -1.5182 H       1  LIG1          0.14
      9 H           1.4358    1.9477   -1.1337 H       1  LIG1          0.14
     10 H          -1.1952    0.3689   -1.4223 H       1  LIG1          0.12
     11 H           0.1831    0.3096   -2.5290 H       1  LIG1          0.13
     12 H           0.2059   -1.6664   -1.0628 H       1  LIG1       0.10999999999999999
     13 H           1.5594   -0.6197   -0.5469 H       1  LIG1       0.10999999999999999
@<TRIPOS>BOND
     1    11     2    1
     2     8     1    1
     3     2    10    1
     4     2     1    1
     5     2     3    1
     6     9     1    1
     7    12     3    1
     8     1     7    1
     9     3    13    1
    10     3     4    1
    11     4     5   ar
    12     4     6   ar
