@<TRIPOS>MOLECULE
FERSMFQBWVBKQK-CXTTVELOSA-N	6044502	-1507.7190475103096
 55 56 0 0 0
SMALL
MULLIKEN NwChem

@<TRIPOS>ATOM
      1 C          -0.2015    2.3380    3.5811 C.3     1  LIG1             -0.5
      2 C          -0.5645    4.5162    2.3222 C.3     1  LIG1      -0.4500000000000002
      3 C           0.8628   -3.8968   -1.5854 C.3     1  LIG1       -0.07000000000000028
      4 C          -0.1188   -0.0177    0.0767 C.3     1  LIG1       -0.07000000000000028
      5 C           0.9386    2.7768    1.4503 C.1     1  LIG1       0.40000000000000036
      6 C           1.9265   -2.9793   -2.2250 C.3     1  LIG1       0.08000000000000007
      7 C          -1.4602   -0.4627    0.6635 C.3     1  LIG1       0.08000000000000007
      8 C           3.2398   -2.7849   -1.4314 C.3     1  LIG1       0.07000000000000028
      9 C          -2.6181   -0.3899   -0.3405 C.3     1  LIG1       0.09999999999999964
     10 C           3.1596   -1.6314   -0.3987 C.3     1  LIG1       0.08000000000000007
     11 C          -3.2220    1.0259   -0.4569 C.3     1  LIG1       0.08999999999999986
     12 C           2.5977   -0.3677   -1.0798 C.3     1  LIG1       0.040000000000000036
     13 C          -3.5468    1.5721    0.9466 C.3     1  LIG1       0.07000000000000028
     14 C           1.2677   -0.6781   -1.7846 C.3     1  LIG1       0.34999999999999964
     15 C          -2.3022    1.4911    1.8541 C.3     1  LIG1       0.33000000000000007
     16 C          -0.3243    3.0037    2.2004 C.3     1  LIG1       0.2599999999999998
     17 N           1.9278    2.6156    0.8656 N.1     1  LIG1      -0.5499999999999998
     18 O           0.6666   -3.8015   -0.1699 O.3     1  LIG1      -0.6500000000000004
     19 O           4.3208   -2.5575   -2.3259 O.3     1  LIG1      -0.6899999999999995
     20 O          -3.7080   -1.2365    0.0688 O.3     1  LIG1      -0.6799999999999997
     21 O           2.4310   -1.9525    0.7735 O.3     1  LIG1      -0.7100000000000009
     22 O          -2.3647    1.8896   -1.1918 O.3     1  LIG1      -0.6899999999999995
     23 O           3.4774    0.1041   -2.1164 O.3     1  LIG1      -0.6699999999999999
     24 O          -4.6168    0.8865    1.5610 O.3     1  LIG1      -0.6799999999999997
     25 O           0.2516   -1.0303   -0.8513 O.3     1  LIG1      -0.5199999999999996
     26 O           1.3853   -1.7259   -2.6948 O.3     1  LIG1      -0.5199999999999996
     27 O          -1.7405    0.2065    1.9079 O.3     1  LIG1      -0.5099999999999998
     28 O          -1.3854    2.4824    1.3661 O.3     1  LIG1      -0.5500000000000007
     29 H           0.6935    2.7191    4.0802 H       1  LIG1       0.18999999999999995
     30 H          -0.1267    1.2531    3.4904 H       1  LIG1       0.18999999999999995
     31 H          -1.0665    2.5898    4.2006 H       1  LIG1       0.18999999999999995
     32 H           0.2484    5.0006    2.8718 H       1  LIG1       0.18000000000000005
     33 H          -0.6423    4.9676    1.3299 H       1  LIG1       0.18000000000000005
     34 H          -1.5053    4.6788    2.8568 H       1  LIG1       0.18000000000000005
     35 H          -0.0988   -3.6520   -2.0419 H       1  LIG1       0.17000000000000004
     36 H           1.1131   -4.9354   -1.8467 H       1  LIG1       0.16000000000000003
     37 H          -0.1903    0.9510   -0.4239 H       1  LIG1       0.16000000000000003
     38 H           0.6103    0.0537    0.8910 H       1  LIG1       0.16000000000000003
     39 H           2.2179   -3.4731   -3.1577 H       1  LIG1       0.17000000000000004
     40 H          -1.3249   -1.5121    0.9550 H       1  LIG1       0.18000000000000005
     41 H           3.4764   -3.7122   -0.8941 H       1  LIG1       0.16000000000000003
     42 H          -2.2376   -0.6977   -1.3217 H       1  LIG1       0.17000000000000004
     43 H           4.1873   -1.4305   -0.0767 H       1  LIG1       0.16000000000000003
     44 H          -4.1612    0.9381   -1.0126 H       1  LIG1       0.16000000000000003
     45 H           2.4466    0.4156   -0.3308 H       1  LIG1       0.18999999999999995
     46 H          -3.8340    2.6254    0.8617 H       1  LIG1       0.17000000000000004
     47 H           0.9550    0.1938   -2.3745 H       1  LIG1       0.16000000000000003
     48 H          -2.6025    1.7096    2.8800 H       1  LIG1       0.18000000000000005
     49 H           1.4114   -4.2462    0.2652 H       1  LIG1       0.43999999999999995
     50 H           4.1860   -1.6554   -2.6759 H       1  LIG1       0.42000000000000004
     51 H          -3.3642   -2.1315    0.2176 H       1  LIG1       0.43999999999999995
     52 H           1.5343   -2.2230    0.4898 H       1  LIG1       0.44999999999999996
     53 H          -1.8098    2.3677   -0.5517 H       1  LIG1       0.43999999999999995
     54 H           4.2002    0.5858   -1.6855 H       1  LIG1       0.44999999999999996
     55 H          -4.4957   -0.0613    1.3564 H       1  LIG1       0.43000000000000005
@<TRIPOS>BOND
     1    39     6    1
     2    26     6    1
     3    26    14    1
     4    50    19    1
     5    47    14    1
     6    19     8    1
     7     6     3    1
     8     6     8    1
     9    23    54    1
    10    23    12    1
    11    35     3    1
    12    36     3    1
    13    14    12    1
    14    14    25    1
    15     3    18    1
    16     8    41    1
    17     8    10    1
    18    42     9    1
    19    22    53    1
    20    22    11    1
    21    12    10    1
    22    12    45    1
    23    44    11    1
    24    25     4    1
    25    11     9    1
    26    11    13    1
    27    37     4    1
    28    10    43    1
    29    10    21    1
    30     9    20    1
    31     9     7    1
    32    18    49    1
    33    20    51    1
    34     4     7    1
    35     4    38    1
    36    52    21    1
    37     7    40    1
    38     7    27    1
    39    46    13    1
    40    17     5    3
    41    13    24    1
    42    13    15    1
    43    33     2    1
    44    55    24    1
    45    28    15    1
    46    28    16    1
    47     5    16    1
    48    15    27    1
    49    15    48    1
    50    16     2    1
    51    16     1    1
    52     2    34    1
    53     2    32    1
    54    30     1    1
    55     1    29    1
    56     1    31    1
