@<TRIPOS>MOLECULE
FFEARJCKVFRZRR-BYPYZUCNSA-N	6044503	-800.4269735708197
 20 19 0 0 0
SMALL
MULLIKEN NwChem

@<TRIPOS>ATOM
      1 CE         -0.4263    1.4128    2.1460 C.3     1  MET1      -0.5999999999999996
      2 CB         -0.7625   -1.0531   -0.5087 C.3     1  MET1      -0.2599999999999998
      3 CG         -0.4564   -1.2258    0.9846 C.3     1  MET1      -0.4299999999999997
      4 CA         -0.1882    0.2084   -1.1920 C.3     1  MET1       -0.05999999999999961
      5 C           1.3374    0.1126   -1.2404 C.2     1  MET1       0.5800000000000001
      6 N          -0.7724    0.3345   -2.5249 N.3     1  MET1        -0.75
      7 O           1.9688   -0.3253   -2.1772 O.2     1  MET1      -0.5099999999999998
      8 OXT         1.9359    0.5441   -0.0989 O.3     1  MET1      -0.5700000000000003
      9 SD         -1.3947   -0.1455    2.1440 S.3     1  MET1          0.0
     10 HE1        -0.6267    1.9068    3.1009 H       1  MET1       0.18999999999999995
     11 HE2        -0.7209    2.0864    1.3363 H       1  MET1       0.19999999999999996
     12 HE3         0.6430    1.2033    2.0678 H       1  MET1       0.19999999999999996
     13 HB1        -0.3800   -1.9322   -1.0496 H       1  MET1       0.17000000000000004
     14 HB2        -1.8451   -1.0253   -0.6654 H       1  MET1       0.17000000000000004
     15 HG1         0.6118   -1.1191    1.1958 H       1  MET1       0.19999999999999996
     16 HG2        -0.7432   -2.2387    1.2868 H       1  MET1       0.19999999999999996
     17 HA         -0.4666    1.0883   -0.6062 H       1  MET1       0.18999999999999995
     18 H1         -0.4446    1.1977   -2.9575 H       1  MET1       0.32999999999999996
     19 H2         -0.3970   -0.4133   -3.1096 H       1  MET1       0.31999999999999995
     20 HXT         2.8947    0.4016   -0.2204 H       1  MET1       0.43999999999999995
@<TRIPOS>BOND
     1    19     6    1
     2    18     6    1
     3     6     4    1
     4     7     5    2
     5     5     4    1
     6     5     8    1
     7     4    17    1
     8     4     2    1
     9    13     2    1
    10    14     2    1
    11     2     3    1
    12    20     8    1
    13     3    15    1
    14     3    16    1
    15     3     9    1
    16    11     1    1
    17    12     1    1
    18     9     1    1
    19     1    10    1
