@<TRIPOS>MOLECULE
FFFHZYDWPBMWHY-VKHMYHEASA-N	6044504	-761.1429736808801
 17 16 0 0 0
SMALL
MULLIKEN NwChem

@<TRIPOS>ATOM
      1 C           0.2003    0.8672    0.5150 C.3     1  LIG1      -0.2599999999999998
      2 C          -0.2216    1.9195   -0.5135 C.3     1  LIG1      -0.41000000000000014
      3 CA         -0.3657   -0.5355    0.2037 C.3     1  LIG1       -0.05999999999999961
      4 C           0.2075   -1.5423    1.1989 C.2     1  LIG1       0.5800000000000001
      5 N          -1.8238   -0.5052    0.2048 N.3     1  LIG1      -0.7400000000000002
      6 OXT        -0.4239   -2.0874    2.0786 O.2     1  LIG1      -0.5199999999999996
      7 O           1.5339   -1.7486    1.0097 O.3     1  LIG1      -0.5800000000000001
      8 S           0.4494    1.6478   -2.2114 S.3     1  LIG1      -0.1700000000000017
      9 H          -0.1703    1.1828    1.5016 H       1  LIG1       0.17000000000000004
     10 H           1.2924    0.8123    0.5846 H       1  LIG1       0.17000000000000004
     11 H          -1.3072    1.8922   -0.6371 H       1  LIG1       0.19999999999999996
     12 H           0.0611    2.9210   -0.1768 H       1  LIG1       0.19999999999999996
     13 HA         -0.0174   -0.8171   -0.7965 H       1  LIG1       0.18999999999999995
     14 H1         -2.1825   -1.3547   -0.2273 H       1  LIG1       0.32999999999999996
     15 H2         -2.1455   -0.5398    1.1725 H       1  LIG1       0.31999999999999995
     16 H           1.8178   -2.3787    1.6989 H       1  LIG1       0.44999999999999996
     17 H           1.7540    1.7941   -1.8889 H       1  LIG1           0.14
@<TRIPOS>BOND
     1     8    17    1
     2     8     2    1
     3    13     3    1
     4    11     2    1
     5     2    12    1
     6     2     1    1
     7    14     5    1
     8     3     5    1
     9     3     1    1
    10     3     4    1
    11     5    15    1
    12     1    10    1
    13     1     9    1
    14     7     4    1
    15     7    16    1
    16     4     6    2
