@<TRIPOS>MOLECULE
FFQKYPRQEYGKAF-UHFFFAOYSA-L	6044505	-811.8762098406213
 10 9 0 0 0
SMALL
MULLIKEN NwChem

@<TRIPOS>ATOM
      1 C          -1.5073   -0.8212   -0.3490 C.2     1  LIG1       0.5700000000000003
      2 N          -2.0092    0.4127   -0.3439 N.am    1  LIG1      -0.8300000000000001
      3 O          -2.0222   -1.8572   -0.8026 O.2     1  LIG1      -0.6500000000000004
      4 O           2.3458   -0.5406    0.2670 O.2     1  LIG1      -0.6999999999999993
      5 O           0.7648    0.8602   -1.2070 O.3     1  LIG1      -0.7699999999999996
      6 O           0.6573    1.1455    1.3725 O.3     1  LIG1      -0.7200000000000006
      7 O          -0.1784   -1.0426    0.2215 O.3     1  LIG1      -0.6099999999999994
      8 P           1.0009    0.1409    0.2874 P.3     1  LIG1       1.0399999999999991
      9 H          -1.4464    0.9707    0.3062 H       1  LIG1          0.27
     10 H          -0.2168    0.9395   -1.2698 H       1  LIG1            0.4
@<TRIPOS>BOND
     1    10     5    1
     2     5     8    1
     3     3     1    2
     4     1     2   am
     5     1     7    1
     6     2     9    1
     7     7     8    1
     8     4     8    2
     9     8     6    1
