@<TRIPOS>MOLECULE
FGSBNBBHOZHUBO-UHFFFAOYSA-L	6044508	-608.5802857387591
 17 16 0 0 0
SMALL
MULLIKEN NwChem

@<TRIPOS>ATOM
      1 C          -0.1097    1.2576   -2.3023 C.3     1  LIG1      -0.4500000000000002
      2 C          -1.0995    0.8047   -1.2206 C.3     1  LIG1      -0.2599999999999998
      3 C          -0.4605    0.4359    0.1458 C.3     1  LIG1       -0.21999999999999975
      4 C           0.3951   -0.8238    0.0045 C.2     1  LIG1       0.3700000000000001
      5 C           0.2226    1.7397    0.7595 C.2     1  LIG1       0.5199999999999996
      6 C          -0.1953   -2.1215    0.6311 C.2     1  LIG1       0.4500000000000002
      7 O           1.4147   -0.8713   -0.6849 O.2     1  LIG1      -0.5500000000000007
      8 O          -0.5092    2.3529    1.5839 O.co2   1  LIG1      -0.6799999999999997
      9 O           1.3542    2.0667    0.3216 O.co2   1  LIG1      -0.6600000000000001
     10 O           0.4623   -2.7455    1.4965 O.co2   1  LIG1      -0.6600000000000001
     11 O          -1.3143   -2.4068    0.1099 O.co2   1  LIG1      -0.6500000000000004
     12 H           0.4794    2.1021   -1.9335 H       1  LIG1          0.14
     13 H           0.5960    0.4524   -2.5242 H       1  LIG1          0.14
     14 H          -0.6369    1.5442   -3.2292 H       1  LIG1          0.13
     15 H          -1.6671   -0.0704   -1.5702 H       1  LIG1          0.13
     16 H          -1.8258    1.6122   -1.0314 H       1  LIG1          0.13
     17 H          -1.2939    0.1837    0.8078 H       1  LIG1       0.10999999999999999
@<TRIPOS>BOND
     1    14     1    1
     2    13     1    1
     3     1    12    1
     4     1     2    1
     5    15     2    1
     6     2    16    1
     7     2     3    1
     8     7     4    2
     9     4     3    1
    10     4     6    1
    11    11     6   ar
    12     3     5    1
    13     3    17    1
    14     9     5   ar
    15     6    10   ar
    16     5     8   ar
