@<TRIPOS>MOLECULE
FHXAGOICBFGEBF-BQBZGAKWSA-M	6044510	-1517.6374768740097
 38 38 0 0 0
SMALL
MULLIKEN NwChem

@<TRIPOS>ATOM
      1 C           1.1724    2.9754    0.7057 C.3     1  LIG1      -0.2599999999999998
      2 C          -0.2473    2.4706    0.4020 C.3     1  LIG1       -0.33000000000000007
      3 C          -1.6721   -3.4018   -2.5932 C.3     1  LIG1       -0.2400000000000002
      4 C          -2.8417   -0.4970   -1.0325 C.3     1  LIG1       -0.3799999999999999
      5 C          -0.7233    0.1377    1.4343 C.2     1  LIG1       0.21999999999999975
      6 CA          1.7021    2.5545    2.0935 C.3     1  LIG1       -0.04999999999999982
      7 C          -1.3375   -0.7439   -1.3332 C.3     1  LIG1       -0.07000000000000028
      8 C          -0.3339    0.9630    0.2140 C.3     1  LIG1       0.45999999999999996
      9 C          -0.5368   -4.4105   -2.4993 C.2     1  LIG1       0.5800000000000001
     10 C          -1.1431   -1.1115   -2.8111 C.2     1  LIG1       0.5300000000000002
     11 C           3.1273    3.0215    2.3151 C.2     1  LIG1       0.5999999999999996
     12 N           0.8388    3.0788    3.1498 N.3     1  LIG1      -0.7999999999999998
     13 N          -1.3026   -2.2426   -3.3760 N.2     1  LIG1         -0.5
     14 N          -0.6269    0.5223   -1.1194 N.4     1  LIG1      -0.3200000000000003
     15 O          -0.5995    0.6054    2.5763 O.2     1  LIG1      -0.5299999999999994
     16 O           0.7349    0.3579   -0.5462 O.3     1  LIG1      -0.4399999999999995
     17 O          -0.6200   -5.5964   -2.7405 O.2     1  LIG1      -0.5099999999999998
     18 O           0.6073   -3.8379   -2.0556 O.3     1  LIG1      -0.5700000000000003
     19 O          -0.8218   -0.0590   -3.5918 O.2     1  LIG1      -0.6300000000000008
     20 OXT         3.5590    3.5482    3.3219 O.2     1  LIG1      -0.5199999999999996
     21 O           3.9434    2.7385    1.2629 O.3     1  LIG1      -0.5899999999999999
     22 S          -3.1599    0.0668    0.6827 S.3     1  LIG1      -0.5599999999999987
     23 H           1.1684    4.0719    0.6711 H       1  LIG1       0.15000000000000002
     24 H           1.8480    2.6137   -0.0740 H       1  LIG1       0.16000000000000003
     25 H          -0.9460    2.7613    1.1888 H       1  LIG1       0.17000000000000004
     26 H          -0.5822    2.9334   -0.5319 H       1  LIG1       0.17000000000000004
     27 H          -1.9849   -3.2002   -1.5565 H       1  LIG1       0.19999999999999996
     28 H          -2.4997   -3.9240   -3.0814 H       1  LIG1       0.18999999999999995
     29 H          -3.2043    0.2322   -1.7684 H       1  LIG1       0.17000000000000004
     30 H          -3.3687   -1.4369   -1.2385 H       1  LIG1       0.18999999999999995
     31 H          -0.6730   -0.9481    1.2661 H       1  LIG1          0.14
     32 HA          1.7614    1.4494    2.1052 H       1  LIG1       0.17000000000000004
     33 H          -0.9389   -1.5394   -0.7008 H       1  LIG1       0.19999999999999996
     34 H1          1.3504    3.0529    4.0287 H       1  LIG1       0.31999999999999995
     35 H2          0.0671    2.4130    3.2247 H       1  LIG1       0.33999999999999997
     36 H           1.2637   -4.5575   -2.0072 H       1  LIG1       0.44999999999999996
     37 H          -0.6651    0.6815   -2.9576 H       1  LIG1       0.44999999999999996
     38 H           4.8296    3.0354    1.5399 H       1  LIG1       0.44999999999999996
@<TRIPOS>BOND
     1    19    37    1
     2    19    10    1
     3    13    10    2
     4    13     3    1
     5    28     3    1
     6    10     7    1
     7    17     9    2
     8     3     9    1
     9     3    27    1
    10     9    18    1
    11    18    36    1
    12    29     4    1
    13     7    14    1
    14     7     4    1
    15     7    33    1
    16    30     4    1
    17    14    16    1
    18    14     8    1
    19     4    22    1
    20    16     8    1
    21    26     2    1
    22    24     1    1
    23     8     2    1
    24     8     5    1
    25     2     1    1
    26     2    25    1
    27    23     1    1
    28     1     6    1
    29    21    38    1
    30    21    11    1
    31    31     5    1
    32     5    15    2
    33     6    32    1
    34     6    11    1
    35     6    12    1
    36    11    20    2
    37    12    35    1
    38    12    34    1
