@<TRIPOS>MOLECULE
FIVPIPIDMRVLAY-RBJBARPLSA-N	6044511	-1710.3419776775117
 35 38 0 0 0
SMALL
MULLIKEN NwChem

@<TRIPOS>ATOM
      1 C           2.0684   -2.6793   -1.3545 C.3     1  LIG1       -0.34999999999999964
      2 C          -4.1319    1.2534    1.7898 C.2     1  LIG1      -0.13999999999999968
      3 C          -3.1316    0.3926    2.4293 C.2     1  LIG1      -0.20000000000000018
      4 C          -3.9493    1.7577    0.5577 C.2     1  LIG1      -0.16000000000000014
      5 C          -0.7680   -0.6252    2.2613 C.3     1  LIG1       -0.3700000000000001
      6 C           1.9972   -0.1042   -2.6613 C.3     1  LIG1       -0.05999999999999961
      7 C          -1.9076    0.2945    1.8984 C.2     1  LIG1      0.1299999999999999
      8 C          -2.7031    1.4730   -0.2531 C.3     1  LIG1       0.08000000000000007
      9 C          -1.5353    1.1503    0.7138 C.3     1  LIG1           0.0
     10 C           0.6981   -1.7726    0.4650 C.2     1  LIG1       0.6399999999999997
     11 C           0.1366    0.5302   -1.0885 C.2     1  LIG1       0.6600000000000001
     12 C           0.2354   -0.4569    1.1050 C.3     1  LIG1       -0.07000000000000028
     13 C           1.4716   -0.2236   -1.2185 C.3     1  LIG1       -0.09999999999999964
     14 N           1.3223   -1.5756   -0.7479 N.am    1  LIG1      -0.3899999999999997
     15 N          -0.4178    0.3911    0.1345 N.am    1  LIG1      -0.4400000000000004
     16 O           1.1097   -0.6961   -3.5827 O.3     1  LIG1      -0.6500000000000004
     17 O          -2.9941    0.4167   -1.1546 O.3     1  LIG1      -0.6799999999999997
     18 O           0.5547   -2.8544    1.0086 O.2     1  LIG1      -0.5399999999999991
     19 O          -0.3480    1.1837   -2.0186 O.2     1  LIG1      -0.5700000000000003
     20 S           1.8404    0.3402    1.7530 S.3     1  LIG1      0.03999999999999915
     21 S           2.6951    0.8025   -0.1374 S.3     1  LIG1      0.019999999999999574
     22 H           1.8127   -2.7586   -2.4122 H       1  LIG1       0.19999999999999996
     23 H           1.7797   -3.5887   -0.8294 H       1  LIG1       0.19999999999999996
     24 H           3.1469   -2.5232   -1.2348 H       1  LIG1       0.19999999999999996
     25 H          -5.0665    1.4280    2.3173 H       1  LIG1       0.16000000000000003
     26 H          -3.4203   -0.1939    3.2980 H       1  LIG1       0.16000000000000003
     27 H          -4.7380    2.3113    0.0570 H       1  LIG1       0.16000000000000003
     28 H          -1.0664   -1.6766    2.3146 H       1  LIG1       0.21999999999999997
     29 H          -0.3141   -0.3718    3.2266 H       1  LIG1       0.21999999999999997
     30 H           2.1559    0.9617   -2.8687 H       1  LIG1       0.18999999999999995
     31 H           2.9570   -0.6165   -2.7492 H       1  LIG1       0.19999999999999996
     32 H          -2.4154    2.3705   -0.8134 H       1  LIG1       0.17000000000000004
     33 H          -1.1499    2.1179    1.0779 H       1  LIG1       0.20999999999999996
     34 H           0.3249   -0.1198   -3.5940 H       1  LIG1       0.43999999999999995
     35 H          -2.3413    0.5077   -1.8709 H       1  LIG1       0.43000000000000005
@<TRIPOS>BOND
     1    34    16    1
     2    16     6    1
     3    30     6    1
     4    31     6    1
     5     6    13    1
     6    22     1    1
     7    19    11    2
     8    35    17    1
     9     1    24    1
    10     1    23    1
    11     1    14    1
    12    13    11    1
    13    13    14    1
    14    13    21    1
    15    17     8    1
    16    11    15   am
    17    32     8    1
    18    14    10   am
    19     8     4    1
    20     8     9    1
    21    21    20    1
    22    27     4    1
    23    15     9    1
    24    15    12    1
    25    10    18    2
    26    10    12    1
    27     4     2    2
    28     9    33    1
    29     9     7    1
    30    12    20    1
    31    12     5    1
    32     2    25    1
    33     2     3    1
    34     7     5    1
    35     7     3    2
    36     5    28    1
    37     5    29    1
    38     3    26    1
