@<TRIPOS>MOLECULE
FJKROLUGYXJWQN-UHFFFAOYSA-M	6044512	-495.49457672319875
 15 15 0 0 0
SMALL
MULLIKEN NwChem

@<TRIPOS>ATOM
      1 C          -1.1428    0.4807    0.0218 C.2     1  LIG1      -0.17999999999999972
      2 C           0.9960   -0.6408   -0.0059 C.2     1  LIG1      -0.21999999999999975
      3 C          -1.7899   -0.7297    0.0774 C.2     1  LIG1      -0.2699999999999996
      4 C           0.3697   -1.8638    0.0494 C.2     1  LIG1      -0.2699999999999996
      5 C           0.2746    0.5838   -0.0240 C.3     1  LIG1       0.019999999999999574
      6 C          -1.0803   -2.0015    0.0940 C.2     1  LIG1       0.40000000000000036
      7 C           0.8737    1.9105   -0.0860 C.2     1  LIG1           0.5
      8 O          -1.6585   -3.1153    0.1428 O.2     1  LIG1      -0.7200000000000006
      9 O           2.2617    1.9846   -0.1419 O.3     1  LIG1      -0.6400000000000006
     10 O           0.2695    2.9744   -0.0944 O.2     1  LIG1      -0.5700000000000003
     11 H          -1.7067    1.4109    0.0104 H       1  LIG1          0.13
     12 H           2.0907   -0.6420   -0.0331 H       1  LIG1          0.14
     13 H          -2.8772   -0.7804    0.1113 H       1  LIG1       0.10999999999999999
     14 H           0.9470   -2.7866    0.0626 H       1  LIG1       0.10999999999999999
     15 H           2.6185    1.0832   -0.1395 H       1  LIG1       0.44999999999999996
@<TRIPOS>BOND
     1     9    15    1
     2     9     7    1
     3    10     7    2
     4     7     5    1
     5    12     2    1
     6     5     2    1
     7     5     1    1
     8     2     4    2
     9    11     1    1
    10     1     3    2
    11     4    14    1
    12     4     6    1
    13     3     6    1
    14     3    13    1
    15     6     8    2
