@<TRIPOS>MOLECULE
FKHAKIJOKDGEII-GBXIJSLDSA-L	6044514	-1080.1806912340917
 21 20 0 0 0
SMALL
MULLIKEN NwChem

@<TRIPOS>ATOM
      1 C           0.6527    0.3015    0.1266 C.3     1  LIG1       -0.04999999999999982
      2 C          -0.2125   -0.9076   -0.2775 C.3     1  LIG1       0.11000000000000032
      3 CA          0.5846   -1.9844   -1.0512 C.3     1  LIG1       -0.08000000000000007
      4 C           1.2930   -1.5077   -2.3766 C.2     1  LIG1       0.5199999999999996
      5 N           1.5993   -2.5745   -0.1219 N.3     1  LIG1      -0.7800000000000002
      6 O          -1.3331   -0.5006   -1.0489 O.3     1  LIG1      -0.7200000000000006
      7 OXT         2.3817   -0.8800   -2.1831 O.co2   1  LIG1      -0.6699999999999999
      8 O           0.7683   -1.8392   -3.4646 O.co2   1  LIG1      -0.6799999999999997
      9 O          -2.4331    0.5640    1.2749 O.2     1  LIG1      -0.7200000000000006
     10 O          -0.5184    0.3466    2.9594 O.3     1  LIG1      -0.7400000000000002
     11 O          -1.3722    2.7127    2.4056 O.3     1  LIG1      -0.6899999999999995
     12 O          -0.0687    1.4297    0.6616 O.3     1  LIG1      -0.5999999999999996
     13 P          -1.2484    1.3364    1.8103 P.3     1  LIG1       1.0899999999999999
     14 H           1.1792    0.6762   -0.7528 H       1  LIG1       0.15000000000000002
     15 H           1.3989   -0.0289    0.8644 H       1  LIG1          0.14
     16 H          -0.5569   -1.3897    0.6520 H       1  LIG1          0.12
     17 HA         -0.1441   -2.7611   -1.3139 H       1  LIG1          0.12
     18 H1          1.9283   -3.4257   -0.5881 H       1  LIG1       0.31000000000000005
     19 H2          2.3940   -1.9372   -0.2577 H       1  LIG1       0.30000000000000004
     20 H          -1.9009   -0.0391   -0.3876 H       1  LIG1       0.43000000000000005
     21 H           0.0891    0.9384    3.4293 H       1  LIG1       0.43999999999999995
@<TRIPOS>BOND
     1     8     4   ar
     2     4     7   ar
     3     4     3    1
     4    17     3    1
     5     3     2    1
     6     3     5    1
     7     6    20    1
     8     6     2    1
     9    14     1    1
    10    18     5    1
    11     2     1    1
    12     2    16    1
    13    19     5    1
    14     1    12    1
    15     1    15    1
    16    12    13    1
    17     9    13    2
    18    13    11    1
    19    13    10    1
    20    10    21    1
