@<TRIPOS>MOLECULE
FLVIETJQVDUKMQ-UHFFFAOYSA-N	6044516	-666.9470425974988
 24 24 0 0 0
SMALL
MULLIKEN NwChem

@<TRIPOS>ATOM
      1 C          -0.6237    1.8893    0.5467 C.ar    1  LIG1       -0.04999999999999982
      2 C          -2.8398    0.6942    0.4678 C.3     1  LIG1       -0.13999999999999968
      3 C          -1.2395   -1.8590    0.1390 C.3     1  LIG1       -0.1299999999999999
      4 C           2.9333    0.9954    0.2197 C.3     1  LIG1       -0.11000000000000032
      5 C          -1.3274    0.6913    0.4210 C.ar    1  LIG1       0.07000000000000028
      6 C          -0.5886   -0.4922    0.2285 C.ar    1  LIG1       0.08999999999999986
      7 CA          1.4231    0.8794    0.2997 C.ar    1  LIG1          0.25
      8 C           0.8062   -0.3826    0.1687 C.ar    1  LIG1       0.2599999999999998
      9 N           0.7107    1.9906    0.4895 N.ar    1  LIG1      -0.5199999999999996
     10 O          -3.4331    0.2174   -0.7450 O.3     1  LIG1      -0.6500000000000004
     11 O          -0.5879   -2.7163   -0.8258 O.3     1  LIG1      -0.6600000000000001
     12 O           3.4752    0.4112   -0.9583 O.3     1  LIG1      -0.6699999999999999
     13 O           1.6210   -1.4694    0.0083 O.3     1  LIG1      -0.6999999999999993
     14 H          -1.1662    2.8223    0.6967 H       1  LIG1       0.16000000000000003
     15 H          -3.2165    0.0249    1.2484 H       1  LIG1       0.18000000000000005
     16 H          -3.1976    1.7055    0.7117 H       1  LIG1       0.16000000000000003
     17 H          -1.1336   -2.3920    1.0905 H       1  LIG1       0.19999999999999996
     18 H          -2.3022   -1.7750   -0.0974 H       1  LIG1       0.18999999999999995
     19 H1          3.1892    2.0570    0.2012 H       1  LIG1       0.16000000000000003
     20 H2          3.3818    0.5531    1.1258 H       1  LIG1       0.16000000000000003
     21 H          -3.1014    0.7799   -1.4631 H       1  LIG1       0.43000000000000005
     22 H          -0.7605   -2.3451   -1.7067 H       1  LIG1       0.44999999999999996
     23 H           3.2619   -0.5353   -0.9081 H       1  LIG1       0.43000000000000005
     24 H           1.0630   -2.2104   -0.3220 H       1  LIG1       0.44999999999999996
@<TRIPOS>BOND
     1    22    11    1
     2    21    10    1
     3    12    23    1
     4    12     4    1
     5    11     3    1
     6    10     2    1
     7    24    13    1
     8    18     3    1
     9    13     8    1
    10     3     6    1
    11     3    17    1
    12     8     6   ar
    13     8     7   ar
    14    19     4    1
    15     4     7    1
    16     4    20    1
    17     6     5   ar
    18     7     9   ar
    19     5     2    1
    20     5     1   ar
    21     2    16    1
    22     2    15    1
    23     9     1   ar
    24     1    14    1
