@<TRIPOS>MOLECULE
FNRBOAGVUNHDIL-DYITYTDMSA-N	6044518	-1397.1418303828411
 81 85 0 0 0
SMALL
MULLIKEN NwChem

@<TRIPOS>ATOM
      1 C          -3.9319   -0.6112    5.2749 C.3     1  LIG1      -0.46999999999999975
      2 C          -5.4808   -1.4900    3.5213 C.3     1  LIG1      -0.4800000000000004
      3 C          -3.3848   -2.5944    0.4424 C.3     1  LIG1      -0.4900000000000002
      4 C           0.5175    2.1666   -2.8288 C.3     1  LIG1      -0.5300000000000002
      5 C           5.1315    2.0728   -2.1413 C.3     1  LIG1         -0.5
      6 C           1.0783   -1.2251    1.7131 C.3     1  LIG1         -0.5
      7 C          -0.4299   -0.7722   -1.9249 C.3     1  LIG1      -0.5099999999999998
      8 C          -1.5448    0.7533    0.8418 C.2     1  LIG1      -0.23000000000000043
      9 C          -0.7677    1.6240   -0.1010 C.3     1  LIG1      -0.33000000000000007
     10 C           2.6352   -0.1976   -2.1973 C.3     1  LIG1      -0.3200000000000003
     11 C           2.7024    4.1761   -1.6240 C.3     1  LIG1      -0.2999999999999998
     12 C           1.6623    3.3045   -0.8723 C.3     1  LIG1      -0.2999999999999998
     13 C           1.9361   -0.9999   -1.0966 C.3     1  LIG1      -0.29000000000000004
     14 C          -1.1619   -3.4489    1.3418 C.3     1  LIG1      -0.29000000000000004
     15 C          -0.3395   -2.7197    0.2749 C.3     1  LIG1      -0.2999999999999998
     16 C          -3.2305   -0.5225    2.8329 C.3     1  LIG1      -0.3200000000000003
     17 C          -3.3837   -2.7585    4.0945 C.3     1  LIG1       -0.3600000000000003
     18 C           3.8352    1.5564   -4.2277 C.3     1  LIG1       -0.07000000000000028
     19 C          -1.2432   -0.5080    1.1647 C.2     1  LIG1      0.16000000000000014
     20 C          -2.0433   -1.2748    2.2085 C.3     1  LIG1      -0.1900000000000004
     21 C           2.7577    1.2865   -1.8236 C.3     1  LIG1      -0.1200000000000001
     22 C           0.6096    1.0503   -0.4632 C.3     1  LIG1      -0.1299999999999999
     23 C           3.2362    3.5735   -2.9289 C.3     1  LIG1       0.09999999999999964
     24 C          -3.2136   -3.4584    2.7621 C.2     1  LIG1       0.46999999999999975
     25 C          -4.0019   -1.3435    3.9245 C.3     1  LIG1      0.11000000000000032
     26 C          -2.4590   -2.6748    1.6752 C.3     1  LIG1       0.019999999999999574
     27 C           1.3627    1.9321   -1.5389 C.3     1  LIG1      0.1299999999999999
     28 C           3.7228    2.0976   -2.7746 C.3     1  LIG1       0.08999999999999986
     29 C          -0.0042   -1.2266    0.5916 C.3     1  LIG1      0.04999999999999982
     30 C           0.5222   -0.4873   -0.7363 C.3     1  LIG1      0.08999999999999986
     31 O           4.7055    0.4450   -4.4180 O.3     1  LIG1      -0.6799999999999997
     32 O           4.2369    4.4232   -3.4961 O.3     1  LIG1      -0.6899999999999995
     33 O          -3.6617   -4.5700    2.5391 O.2     1  LIG1      -0.5399999999999991
     34 H          -4.4378   -1.1841    6.0624 H       1  LIG1       0.15000000000000002
     35 H          -4.4227    0.3674    5.2069 H       1  LIG1       0.15000000000000002
     36 H          -2.8944   -0.4437    5.5899 H       1  LIG1       0.15000000000000002
     37 H          -5.9311   -0.5030    3.3669 H       1  LIG1       0.15000000000000002
     38 H          -5.6003   -2.0639    2.5957 H       1  LIG1       0.15000000000000002
     39 H          -6.0563   -2.0000    4.3034 H       1  LIG1       0.15000000000000002
     40 H          -3.6687   -3.6066    0.1362 H       1  LIG1       0.15000000000000002
     41 H          -4.3017   -2.0439    0.6692 H       1  LIG1       0.16000000000000003
     42 H          -2.8993   -2.0859   -0.3928 H       1  LIG1       0.17000000000000004
     43 H           0.4831    3.2258   -3.0978 H       1  LIG1       0.16000000000000003
     44 H           0.9122    1.6326   -3.6963 H       1  LIG1       0.16000000000000003
     45 H          -0.5185    1.8534   -2.7111 H       1  LIG1       0.16000000000000003
     46 H           5.4403    1.0406   -1.9379 H       1  LIG1       0.15000000000000002
     47 H           5.8829    2.5060   -2.8094 H       1  LIG1          0.14
     48 H           5.1355    2.6210   -1.1927 H       1  LIG1       0.16000000000000003
     49 H           1.4930   -0.2254    1.8829 H       1  LIG1       0.15000000000000002
     50 H           0.6561   -1.5608    2.6651 H       1  LIG1       0.16000000000000003
     51 H           1.9042   -1.9064    1.4828 H       1  LIG1       0.15000000000000002
     52 H          -1.4652   -0.4996   -1.6944 H       1  LIG1       0.15000000000000002
     53 H          -0.1326   -0.2233   -2.8163 H       1  LIG1       0.16000000000000003
     54 H          -0.4182   -1.8264   -2.2099 H       1  LIG1       0.15000000000000002
     55 H          -2.4178    1.2270    1.2864 H       1  LIG1          0.13
     56 H          -1.3787    1.8035   -0.9951 H       1  LIG1       0.16000000000000003
     57 H          -0.6424    2.6105    0.3607 H       1  LIG1       0.15000000000000002
     58 H           3.6415   -0.6155   -2.3154 H       1  LIG1          0.14
     59 H           2.1194   -0.3112   -3.1609 H       1  LIG1       0.15000000000000002
     60 H           3.5667    4.3551   -0.9730 H       1  LIG1       0.15000000000000002
     61 H           2.2993    5.1699   -1.8486 H       1  LIG1          0.14
     62 H           0.7323    3.8712   -0.7528 H       1  LIG1          0.14
     63 H           2.0310    3.1144    0.1456 H       1  LIG1          0.14
     64 H           2.5821   -0.9377   -0.2171 H       1  LIG1          0.14
     65 H           1.8929   -2.0609   -1.3725 H       1  LIG1          0.13
     66 H          -1.4237   -4.4530    0.9896 H       1  LIG1          0.14
     67 H          -0.5749   -3.5862    2.2592 H       1  LIG1       0.15000000000000002
     68 H          -0.8987   -2.7847   -0.6567 H       1  LIG1       0.15000000000000002
     69 H           0.5958   -3.2665    0.1044 H       1  LIG1          0.14
     70 H          -3.9290   -0.2145    2.0449 H       1  LIG1       0.15000000000000002
     71 H          -2.8640    0.4068    3.2800 H       1  LIG1       0.15000000000000002
     72 H          -2.3917   -2.6737    4.5583 H       1  LIG1       0.18000000000000005
     73 H          -4.0022   -3.3830    4.7463 H       1  LIG1       0.15000000000000002
     74 H           2.8400    1.3431   -4.6439 H       1  LIG1       0.15000000000000002
     75 H           4.2745    2.3566   -4.8272 H       1  LIG1          0.14
     76 H          -1.3410   -1.4724    3.0327 H       1  LIG1       0.15000000000000002
     77 H           3.2528    1.2974   -0.8399 H       1  LIG1          0.12
     78 H           1.2210    1.1524    0.4433 H       1  LIG1          0.13
     79 H           2.4463    3.5919   -3.6813 H       1  LIG1       0.15000000000000002
     80 H           4.2681   -0.3518   -4.0917 H       1  LIG1       0.43000000000000005
     81 H           4.9419    4.5290   -2.8338 H       1  LIG1       0.42000000000000004
@<TRIPOS>BOND
     1    75    18    1
     2    74    18    1
     3    31    18    1
     4    31    80    1
     5    18    28    1
     6    44     4    1
     7    79    23    1
     8    32    23    1
     9    32    81    1
    10    59    10    1
    11    43     4    1
    12    23    28    1
    13    23    11    1
    14     4    45    1
    15     4    27    1
    16    53     7    1
    17    47     5    1
    18    28     5    1
    19    28    21    1
    20    58    10    1
    21    54     7    1
    22    10    21    1
    23    10    13    1
    24     5    46    1
    25     5    48    1
    26     7    52    1
    27     7    30    1
    28    61    11    1
    29    21    27    1
    30    21    77    1
    31    11    60    1
    32    11    12    1
    33    27    12    1
    34    27    22    1
    35    65    13    1
    36    13    30    1
    37    13    64    1
    38    56     9    1
    39    12    62    1
    40    12    63    1
    41    30    22    1
    42    30    29    1
    43    68    15    1
    44    22     9    1
    45    22    78    1
    46    42     3    1
    47     9    57    1
    48     9     8    1
    49    69    15    1
    50    40     3    1
    51    15    29    1
    52    15    14    1
    53     3    41    1
    54     3    26    1
    55    29    19    1
    56    29     6    1
    57     8    19    2
    58     8    55    1
    59    66    14    1
    60    19    20    1
    61    14    26    1
    62    14    67    1
    63    51     6    1
    64    26    20    1
    65    26    24    1
    66     6    49    1
    67     6    50    1
    68    70    16    1
    69    20    16    1
    70    20    76    1
    71    33    24    2
    72    38     2    1
    73    24    17    1
    74    16    71    1
    75    16    25    1
    76    37     2    1
    77     2    25    1
    78     2    39    1
    79    25    17    1
    80    25     1    1
    81    17    72    1
    82    17    73    1
    83    35     1    1
    84     1    36    1
    85     1    34    1
