@<TRIPOS>MOLECULE
FNZLKVNUWIIPSJ-UHNVWZDZSA-L	6044520	-1139.311260479774
 23 22 0 0 0
SMALL
MULLIKEN NwChem

@<TRIPOS>ATOM
      1 C           1.4239   -0.4583   -2.5775 C.3     1  LIG1       -0.1200000000000001
      2 C          -1.3491   -0.6775    0.7113 C.3     1  LIG1       -0.05999999999999961
      3 C          -0.0124   -0.7925   -2.1593 C.2     1  LIG1       0.41999999999999993
      4 C          -1.8915   -0.0272   -0.5768 C.3     1  LIG1       0.1200000000000001
      5 C          -0.8352    0.3999   -1.6352 C.3     1  LIG1       0.07000000000000028
      6 O           1.5438    0.8500   -3.1113 O.3     1  LIG1      -0.7100000000000009
      7 O          -0.4675   -1.9253   -2.2844 O.2     1  LIG1      -0.5399999999999991
      8 O          -2.6452    1.1446   -0.2592 O.3     1  LIG1      -0.6899999999999995
      9 O          -0.0881    1.4810   -1.2210 O.3     1  LIG1      -0.7599999999999998
     10 O           1.5468    0.3257    0.5139 O.3     1  LIG1      -0.7799999999999994
     11 O           1.1678    1.1808    2.9567 O.3     1  LIG1      -0.6999999999999993
     12 O           1.1064   -1.3869    2.3662 O.2     1  LIG1      -0.7200000000000006
     13 O          -0.7545    0.2668    1.5794 O.3     1  LIG1      -0.5999999999999996
     14 P           0.8762    0.0588    1.9942 P.3     1  LIG1       1.0099999999999998
     15 H           1.7425   -1.1938   -3.3311 H       1  LIG1       0.15000000000000002
     16 H           2.0375   -0.6010   -1.6709 H       1  LIG1       0.16000000000000003
     17 H          -2.2151   -1.1239    1.2334 H       1  LIG1          0.13
     18 H          -0.6615   -1.4973    0.4683 H       1  LIG1          0.14
     19 H          -2.5789   -0.7465   -1.0447 H       1  LIG1          0.13
     20 H          -1.4562    0.6553   -2.5386 H       1  LIG1          0.12
     21 H           1.0258    1.3840   -2.4190 H       1  LIG1       0.41000000000000003
     22 H          -1.9158    1.7781   -0.0927 H       1  LIG1           0.4
     23 H           0.9354    0.8948   -0.0569 H       1  LIG1       0.43999999999999995
@<TRIPOS>BOND
     1    15     1    1
     2     6     1    1
     3     6    21    1
     4     1     3    1
     5     1    16    1
     6    20     5    1
     7     7     3    2
     8     3     5    1
     9     5     9    1
    10     5     4    1
    11    19     4    1
    12     4     8    1
    13     4     2    1
    14     8    22    1
    15    23    10    1
    16    18     2    1
    17    10    14    1
    18     2    17    1
    19     2    13    1
    20    13    14    1
    21    14    12    2
    22    14    11    1
