@<TRIPOS>MOLECULE
FNZLKVNUWIIPSJ-RFZPGFLSSA-L	11152439	-1139.2995699985304
 23 22 0 0 0
SMALL
MULLIKEN NwChem

@<TRIPOS>ATOM
      1 C          -0.5340    2.0545    1.8495 C.3     1  LIG1       -0.09999999999999964
      2 C           1.0969   -0.7720    0.3958 C.3     1  LIG1       -0.03000000000000025
      3 C          -1.5537    0.9006    1.9308 C.2     1  LIG1       0.40000000000000036
      4 C          -0.4464   -0.7229    0.2941 C.3     1  LIG1       0.08999999999999986
      5 C          -1.0225   -0.4886    1.8363 C.3     1  LIG1       0.040000000000000036
      6 O          -1.1832    3.2798    2.1536 O.3     1  LIG1      -0.6899999999999995
      7 O          -2.7412    1.2184    2.0191 O.2     1  LIG1      -0.5399999999999991
      8 O          -1.0134   -1.8548   -0.1753 O.3     1  LIG1      -0.7699999999999996
      9 O          -1.9607   -1.4904    2.0549 O.3     1  LIG1      -0.7300000000000004
     10 O           2.4808   -0.4802   -3.2011 O.2     1  LIG1      -0.6999999999999993
     11 O           1.0150    1.1972   -1.7933 O.3     1  LIG1      -0.7300000000000004
     12 O           0.0397   -1.0691   -2.6674 O.3     1  LIG1      -0.7799999999999994
     13 O           1.7749   -1.0732   -0.8095 O.3     1  LIG1      -0.6199999999999992
     14 P           1.3802   -0.2123   -2.2109 P.3     1  LIG1       1.0600000000000005
     15 H          -0.0939    2.0624    0.8385 H       1  LIG1       0.17000000000000004
     16 H           0.2895    1.8743    2.5580 H       1  LIG1       0.17000000000000004
     17 H           1.3520   -1.5815    1.0994 H       1  LIG1          0.13
     18 H           1.4651    0.1812    0.8213 H       1  LIG1          0.12
     19 H          -0.7058    0.1774   -0.2956 H       1  LIG1       0.09999999999999998
     20 H          -0.1614   -0.5616    2.5330 H       1  LIG1          0.14
     21 H          -2.1277    3.0055    2.1338 H       1  LIG1       0.41000000000000003
     22 H          -0.4104   -1.4445   -1.8639 H       1  LIG1       0.43000000000000005
     23 H          -1.8535   -1.9672    1.1428 H       1  LIG1            0.4
@<TRIPOS>BOND
     1    10    14    2
     2    12    14    1
     3    12    22    1
     4    14    11    1
     5    14    13    1
     6    13     2    1
     7    19     4    1
     8     8     4    1
     9     4     2    1
    10     4     5    1
    11     2    18    1
    12     2    17    1
    13    15     1    1
    14    23     9    1
    15     5     3    1
    16     5     9    1
    17     5    20    1
    18     1     3    1
    19     1     6    1
    20     1    16    1
    21     3     7    2
    22    21     6    1
