@<TRIPOS>MOLECULE
FOUJWBXBKVVHCJ-YIJYGBTNSA-N	6044521	-1169.3179480583149
 75 78 0 0 0
SMALL
MULLIKEN NwChem

@<TRIPOS>ATOM
      1 C           2.7861    7.1897    1.5125 C.3     1  LIG1      -0.5300000000000002
      2 C           4.9716    5.9757    1.8884 C.3     1  LIG1      -0.5199999999999996
      3 C          -0.2182    2.0907    3.5868 C.3     1  LIG1      -0.4800000000000004
      4 C          -2.4628   -3.5693   -4.5524 C.3     1  LIG1      -0.4800000000000004
      5 C           1.7224   -0.5840    2.6710 C.3     1  LIG1      -0.4900000000000002
      6 C          -2.3991   -0.9465   -2.5053 C.3     1  LIG1      -0.4800000000000004
      7 C           1.3806    4.8536    3.0219 C.3     1  LIG1      -0.3200000000000003
      8 C           2.8599    4.9981    2.7716 C.2     1  LIG1      -0.1900000000000004
      9 C           0.7278    3.8242    2.0649 C.3     1  LIG1      -0.2699999999999996
     10 C           1.0015   -2.3879   -1.7370 C.3     1  LIG1      -0.33999999999999986
     11 C           0.0602   -2.8863   -2.8366 C.3     1  LIG1      -0.28000000000000025
     12 C           2.0348    1.5631    0.3720 C.3     1  LIG1      -0.29000000000000004
     13 C           1.8886    0.4202   -0.6317 C.3     1  LIG1      -0.28000000000000025
     14 C          -1.5754   -0.6449    0.6144 C.3     1  LIG1      -0.3600000000000003
     15 C          -4.1667   -3.4752   -1.7935 C.3     1  LIG1      -0.29000000000000004
     16 C          -0.6440   -0.6944    1.8292 C.3     1  LIG1      -0.29000000000000004
     17 C          -3.2736   -2.6445   -0.8551 C.3     1  LIG1      -0.3200000000000003
     18 C           3.4783    5.9877    2.1086 C.2     1  LIG1      0.17999999999999972
     19 C           0.8621    2.3490    2.5234 C.3     1  LIG1      -0.07000000000000028
     20 C          -2.1452   -4.1714   -3.1753 C.3     1  LIG1      -0.08999999999999986
     21 C           0.3206   -1.5522   -0.6699 C.2     1  LIG1      0.08999999999999986
     22 C           0.8163    1.3957    1.3030 C.3     1  LIG1      -0.11000000000000032
     23 C          -1.2807   -3.3022   -2.2287 C.3     1  LIG1      -0.1299999999999999
     24 C           1.3037   -0.7751    0.1867 C.3     1  LIG1      -0.16999999999999993
     25 C          -1.0150   -1.4640   -0.5320 C.2     1  LIG1      0.07000000000000028
     26 C          -3.4171   -4.6466   -2.4407 C.3     1  LIG1       0.1299999999999999
     27 C           0.7687   -0.1582    1.5367 C.3     1  LIG1      0.1200000000000001
     28 C          -1.9934   -2.0932   -1.5431 C.3     1  LIG1      0.05999999999999961
     29 O          -3.1159   -5.6634   -1.4772 O.3     1  LIG1      -0.6899999999999995
     30 H           3.2116    8.1199    1.9114 H       1  LIG1       0.16000000000000003
     31 H           1.7085    7.2100    1.6896 H       1  LIG1       0.16000000000000003
     32 H           2.9436    7.2177    0.4247 H       1  LIG1       0.16000000000000003
     33 H           5.4446    5.0717    2.2850 H       1  LIG1       0.16000000000000003
     34 H           5.2112    6.0464    0.8177 H       1  LIG1       0.16000000000000003
     35 H           5.4472    6.8447    2.3653 H       1  LIG1       0.16000000000000003
     36 H          -1.2175    2.1120    3.1342 H       1  LIG1          0.14
     37 H          -0.1003    1.1322    4.0954 H       1  LIG1       0.16000000000000003
     38 H          -0.1924    2.8708    4.3564 H       1  LIG1       0.15000000000000002
     39 H          -2.9132   -4.3325   -5.1974 H       1  LIG1       0.15000000000000002
     40 H          -3.1604   -2.7299   -4.5034 H       1  LIG1       0.16000000000000003
     41 H          -1.5555   -3.2136   -5.0498 H       1  LIG1       0.15000000000000002
     42 H           1.7828   -1.6786    2.7203 H       1  LIG1          0.14
     43 H           2.7365   -0.2043    2.5091 H       1  LIG1       0.15000000000000002
     44 H           1.3867   -0.2286    3.6496 H       1  LIG1       0.15000000000000002
     45 H          -2.7421   -0.0841   -1.9218 H       1  LIG1       0.15000000000000002
     46 H          -1.5521   -0.6107   -3.1113 H       1  LIG1       0.15000000000000002
     47 H          -3.2116   -1.2231   -3.1816 H       1  LIG1       0.15000000000000002
     48 H           1.2156    4.5480    4.0642 H       1  LIG1          0.14
     49 H           0.8736    5.8166    2.9099 H       1  LIG1          0.14
     50 H           3.4765    4.1739    3.1318 H       1  LIG1          0.12
     51 H          -0.3438    4.0449    1.9545 H       1  LIG1          0.13
     52 H           1.1727    3.9751    1.0762 H       1  LIG1          0.14
     53 H           1.4731   -3.2482   -1.2357 H       1  LIG1       0.15000000000000002
     54 H           1.8336   -1.8228   -2.1779 H       1  LIG1       0.15000000000000002
     55 H           0.5137   -3.7347   -3.3663 H       1  LIG1          0.13
     56 H          -0.0890   -2.1003   -3.5854 H       1  LIG1       0.15000000000000002
     57 H           2.9593    1.4567    0.9560 H       1  LIG1          0.14
     58 H           2.0836    2.5404   -0.1168 H       1  LIG1          0.14
     59 H           1.1719    0.7090   -1.4104 H       1  LIG1          0.13
     60 H           2.8274    0.1652   -1.1349 H       1  LIG1          0.14
     61 H          -2.5569   -1.0205    0.9181 H       1  LIG1       0.15000000000000002
     62 H          -1.7481    0.3975    0.3058 H       1  LIG1       0.15000000000000002
     63 H          -5.0199   -3.8754   -1.2342 H       1  LIG1          0.14
     64 H          -4.5813   -2.8318   -2.5792 H       1  LIG1       0.15000000000000002
     65 H          -0.5567   -1.7466    2.1346 H       1  LIG1          0.12
     66 H          -1.0960   -0.1632    2.6710 H       1  LIG1          0.14
     67 H          -3.8721   -1.8223   -0.4470 H       1  LIG1       0.15000000000000002
     68 H          -2.9790   -3.2588    0.0093 H       1  LIG1          0.14
     69 H           1.8459    2.2240    3.0001 H       1  LIG1          0.12
     70 H          -1.5577   -5.0813   -3.3609 H       1  LIG1          0.12
     71 H          -0.0786    1.6635    0.7190 H       1  LIG1          0.12
     72 H          -1.0243   -3.9722   -1.3895 H       1  LIG1          0.12
     73 H           2.1312   -1.4577    0.4280 H       1  LIG1          0.13
     74 H          -4.0774   -5.1505   -3.1563 H       1  LIG1          0.13
     75 H          -2.5744   -5.2638   -0.7799 H       1  LIG1       0.42000000000000004
@<TRIPOS>BOND
     1    39     4    1
     2    41     4    1
     3     4    40    1
     4     4    20    1
     5    56    11    1
     6    55    11    1
     7    70    20    1
     8    47     6    1
     9    20    26    1
    10    20    23    1
    11    74    26    1
    12    46     6    1
    13    11    23    1
    14    11    10    1
    15    64    15    1
    16     6    45    1
    17     6    28    1
    18    26    15    1
    19    26    29    1
    20    23    28    1
    21    23    72    1
    22    54    10    1
    23    15    63    1
    24    15    17    1
    25    10    53    1
    26    10    21    1
    27    28    17    1
    28    28    25    1
    29    29    75    1
    30    59    13    1
    31    60    13    1
    32    17    67    1
    33    17    68    1
    34    21    25    2
    35    21    24    1
    36    13    24    1
    37    13    12    1
    38    25    14    1
    39    58    12    1
    40    24    73    1
    41    24    27    1
    42    62    14    1
    43    12    57    1
    44    12    22    1
    45    32     1    1
    46    14    61    1
    47    14    16    1
    48    71    22    1
    49    34     2    1
    50    52     9    1
    51    22    27    1
    52    22    19    1
    53     1    31    1
    54     1    30    1
    55     1    18    1
    56    27    16    1
    57    27     5    1
    58    16    65    1
    59    16    66    1
    60     2    18    1
    61     2    33    1
    62     2    35    1
    63    51     9    1
    64     9    19    1
    65     9     7    1
    66    18     8    2
    67    43     5    1
    68    19    69    1
    69    19     3    1
    70     5    42    1
    71     5    44    1
    72     8     7    1
    73     8    50    1
    74    49     7    1
    75     7    48    1
    76    36     3    1
    77     3    37    1
    78     3    38    1
