@<TRIPOS>MOLECULE
FPIPGXGPPPQFEQ-OVSJKPMPSA-N	6044522	-854.9833106331363
 51 51 0 0 0
SMALL
MULLIKEN NwChem

@<TRIPOS>ATOM
      1 C           0.6402    1.6085   -1.2087 C.3     1  LIG1      -0.5499999999999998
      2 C           2.3811    3.2886    5.1022 C.3     1  LIG1        -0.54
      3 C          -4.0387   -0.1861   -2.2009 C.3     1  LIG1      -0.5300000000000002
      4 C          -0.7017   -3.5464   -0.7961 C.3     1  LIG1      -0.46999999999999975
      5 C          -0.4851   -3.2088   -3.2674 C.3     1  LIG1      -0.45999999999999996
      6 C           1.4455    1.8631    1.7566 C.2     1  LIG1      -0.1299999999999999
      7 C          -3.6372   -3.8773   -3.2888 C.3     1  LIG1      -0.28000000000000025
      8 C           0.5294    0.8893    1.2176 C.2     1  LIG1      -0.23000000000000043
      9 C           1.7523    1.9507    3.0735 C.2     1  LIG1      -0.20000000000000018
     10 C          -4.3638   -2.6345   -2.7743 C.3     1  LIG1      -0.33000000000000007
     11 C          -0.7698   -0.3513   -0.4144 C.2     1  LIG1      -0.16000000000000014
     12 C          -1.2095   -0.6667   -1.6487 C.2     1  LIG1      -0.23000000000000043
     13 C           3.7937    3.3137    2.9956 C.2     1  LIG1      -0.21999999999999975
     14 C          -2.5635   -4.2833   -2.2809 C.3     1  LIG1      -0.28000000000000025
     15 C           4.8468    4.2886    3.4308 C.3     1  LIG1       -0.08000000000000007
     16 C           0.1517    0.7309   -0.0824 C.2     1  LIG1      0.16999999999999993
     17 C           2.7104    2.8844    3.6800 C.2     1  LIG1      0.15000000000000036
     18 C          -3.4137   -1.5565   -2.2938 C.2     1  LIG1      0.09999999999999964
     19 C          -2.1225   -1.7982   -1.9868 C.2     1  LIG1      0.04999999999999982
     20 C          -1.4806   -3.1973   -2.0830 C.3     1  LIG1      0.05999999999999961
     21 O           6.1658    3.7752    3.2143 O.3     1  LIG1      -0.6699999999999999
     22 H           1.3459    2.3729   -0.8798 H       1  LIG1       0.17000000000000004
     23 H          -0.2051    2.1183   -1.6899 H       1  LIG1       0.17000000000000004
     24 H           1.1325    1.0074   -1.9834 H       1  LIG1       0.17000000000000004
     25 H           3.1881    3.8371    5.5941 H       1  LIG1       0.17000000000000004
     26 H           1.4817    3.9188    5.1303 H       1  LIG1       0.17000000000000004
     27 H           2.1601    2.3984    5.7063 H       1  LIG1       0.17000000000000004
     28 H          -4.2993    0.1915   -3.2002 H       1  LIG1       0.16000000000000003
     29 H          -4.9789   -0.2338   -1.6339 H       1  LIG1       0.16000000000000003
     30 H          -3.3872    0.5448   -1.7161 H       1  LIG1       0.16000000000000003
     31 H          -0.3317   -4.5769   -0.8595 H       1  LIG1          0.14
     32 H           0.1576   -2.8882   -0.6448 H       1  LIG1       0.15000000000000002
     33 H          -1.3465   -3.4747    0.0879 H       1  LIG1          0.14
     34 H          -0.9933   -3.0340   -4.2215 H       1  LIG1       0.15000000000000002
     35 H           0.2744   -2.4287   -3.1443 H       1  LIG1       0.15000000000000002
     36 H           0.0321   -4.1748   -3.3261 H       1  LIG1          0.14
     37 H           1.9103    2.5702    1.0724 H       1  LIG1       0.15000000000000002
     38 H          -3.1797   -3.6585   -4.2624 H       1  LIG1          0.14
     39 H          -4.3468   -4.6974   -3.4518 H       1  LIG1          0.13
     40 H           0.1067    0.1953    1.9463 H       1  LIG1          0.14
     41 H           1.2258    1.2911    3.7669 H       1  LIG1       0.15000000000000002
     42 H          -5.0126   -2.2167   -3.5574 H       1  LIG1          0.14
     43 H          -5.0401   -2.9113   -1.9492 H       1  LIG1       0.15000000000000002
     44 H          -1.1188   -0.9517    0.4249 H       1  LIG1          0.14
     45 H          -0.8810   -0.0576   -2.4912 H       1  LIG1       0.15000000000000002
     46 H           3.9700    2.9072    2.0003 H       1  LIG1          0.14
     47 H          -3.0518   -4.4739   -1.3141 H       1  LIG1          0.13
     48 H          -2.0759   -5.2221   -2.5749 H       1  LIG1          0.13
     49 H           4.7972    5.1963    2.8153 H       1  LIG1       0.16000000000000003
     50 H           4.7110    4.6066    4.4751 H       1  LIG1       0.15000000000000002
     51 H           6.2025    2.9063    3.6453 H       1  LIG1       0.42000000000000004
@<TRIPOS>BOND
     1    38     7    1
     2    34     5    1
     3    42    10    1
     4    39     7    1
     5    36     5    1
     6     7    10    1
     7     7    14    1
     8     5    35    1
     9     5    20    1
    10    28     3    1
    11    10    18    1
    12    10    43    1
    13    48    14    1
    14    45    12    1
    15    18     3    1
    16    18    19    2
    17    14    20    1
    18    14    47    1
    19     3    30    1
    20     3    29    1
    21    20    19    1
    22    20     4    1
    23    19    12    1
    24    24     1    1
    25    23     1    1
    26    12    11    2
    27     1    22    1
    28     1    16    1
    29    31     4    1
    30     4    32    1
    31     4    33    1
    32    11    16    1
    33    11    44    1
    34    16     8    2
    35    37     6    1
    36     8     6    1
    37     8    40    1
    38     6     9    2
    39    46    13    1
    40    49    15    1
    41    13    15    1
    42    13    17    2
    43     9    17    1
    44     9    41    1
    45    21    15    1
    46    21    51    1
    47    15    50    1
    48    17     2    1
    49     2    26    1
    50     2    25    1
    51     2    27    1
