@<TRIPOS>MOLECULE
FPWMCUPFBRFMLH-XGAOUMNUSA-L	6044523	-837.3503906740182
 24 24 0 0 0
SMALL
MULLIKEN NwChem

@<TRIPOS>ATOM
      1 C           2.6375    0.3304   -0.2068 C.2     1  LIG1      -0.17999999999999972
      2 C           2.0990   -2.0833   -0.3741 C.2     1  LIG1      -0.16999999999999993
      3 C           1.3402    0.6109   -0.0292 C.2     1  LIG1      -0.1200000000000001
      4 C           0.8059   -1.7954   -0.1774 C.2     1  LIG1      -0.1299999999999999
      5 C          -0.9166   -0.2644    0.7568 C.3     1  LIG1       -0.3899999999999997
      6 C           3.0887   -1.0039   -0.7496 C.3     1  LIG1       0.05999999999999961
      7 C          -1.5432    1.1070    1.0241 C.2     1  LIG1       0.3700000000000001
      8 C          -2.5666    1.1358    2.2137 C.2     1  LIG1       0.46999999999999975
      9 C          -0.2817   -0.3153   -1.8125 C.2     1  LIG1          0.54
     10 C           0.2515   -0.3983   -0.2447 C.3     1  LIG1       -0.05999999999999961
     11 O           3.2406   -0.9359   -2.1824 O.3     1  LIG1      -0.7200000000000006
     12 O          -1.2307    2.1218    0.4120 O.2     1  LIG1      -0.5299999999999994
     13 O          -3.6722    1.6818    1.9994 O.co2   1  LIG1      -0.6500000000000004
     14 O          -2.1097    0.6088    3.2666 O.co2   1  LIG1      -0.6500000000000004
     15 O          -1.5027   -0.4743   -1.9636 O.co2   1  LIG1      -0.6199999999999992
     16 O           0.6197   -0.1736   -2.6829 O.co2   1  LIG1      -0.6400000000000006
     17 H           3.3961    1.1094   -0.1110 H       1  LIG1          0.13
     18 H           2.4477   -3.1174   -0.4007 H       1  LIG1          0.13
     19 H           1.0107    1.6099    0.2365 H       1  LIG1          0.14
     20 H           0.0772   -2.5918   -0.0176 H       1  LIG1          0.14
     21 H          -1.7383   -0.8951    0.3904 H       1  LIG1       0.17000000000000004
     22 H          -0.6368   -0.6527    1.7429 H       1  LIG1       0.16000000000000003
     23 H           4.0938   -1.2586   -0.3733 H       1  LIG1          0.12
     24 H           2.3301   -0.6469   -2.4732 H       1  LIG1       0.41000000000000003
@<TRIPOS>BOND
     1    16     9   ar
     2    24    11    1
     3    11     6    1
     4    15     9   ar
     5     9    10    1
     6     6     2    1
     7     6    23    1
     8     6     1    1
     9    18     2    1
    10     2     4    2
    11    10     4    1
    12    10     3    1
    13    10     5    1
    14     1    17    1
    15     1     3    2
    16     4    20    1
    17     3    19    1
    18    21     5    1
    19    12     7    2
    20     5     7    1
    21     5    22    1
    22     7     8    1
    23    13     8   ar
    24     8    14   ar
