@<TRIPOS>MOLECULE
FQFRDDVZPBFYST-STMKCBHISA-J	11152515	-4134.083864917963
 90 92 0 0 0
SMALL
MULLIKEN NwChem

@<TRIPOS>ATOM
      1 C           3.4969    1.0159   -0.7115 C.3     1  LIG1      -0.46999999999999975
      2 C           3.1671    1.8170    1.6677 C.3     1  LIG1      -0.4900000000000002
      3 C          13.6874    1.2115   -2.1879 C.2     1  LIG1      -0.08000000000000007
      4 C          13.3996    0.9170   -0.9101 C.2     1  LIG1      -0.17999999999999972
      5 C           7.9547    1.3203    1.9115 C.3     1  LIG1       -0.33000000000000007
      6 C           7.1906   -0.0075    1.9627 C.3     1  LIG1       -0.13999999999999968
      7 C          11.6712    1.5929    1.9059 C.3     1  LIG1       -0.1200000000000001
      8 C          12.6562    1.6501   -3.1781 C.3     1  LIG1       -0.08999999999999986
      9 C          12.1660    0.1329    1.7719 C.3     1  LIG1       -0.4400000000000004
     10 C          -5.1430   -0.1394   -0.3495 C.3     1  LIG1       -0.08000000000000007
     11 C           1.3490    0.5848    0.5537 C.3     1  LIG1       -0.08000000000000007
     12 C         -12.4163    1.8152   -1.4063 C.ar    1  LIG1       0.15000000000000036
     13 C          -8.1500    1.6795   -2.1772 C.ar    1  LIG1       0.20999999999999996
     14 C          -6.3171   -0.3543    0.6173 C.3     1  LIG1       0.1200000000000001
     15 C           9.4348    1.1586    2.3071 C.2     1  LIG1           0.5
     16 C          14.4618    0.4244    0.0073 C.2     1  LIG1       0.2599999999999998
     17 C         -10.1253    2.2477   -2.6807 C.ar    1  LIG1       0.1900000000000004
     18 C          -8.1898   -1.1704   -0.6821 C.3     1  LIG1       0.17999999999999972
     19 C          -7.1686   -1.6220    0.4395 C.3     1  LIG1       0.05999999999999961
     20 C           3.4853   -0.6593    1.1951 C.3     1  LIG1       0.05999999999999961
     21 C         -11.3319    2.6985   -3.2276 C.ar    1  LIG1       0.4299999999999997
     22 C         -10.2149    1.5421   -1.4604 C.ar    1  LIG1       0.5199999999999996
     23 C           5.0311   -0.7326    1.3315 C.2     1  LIG1           0.5
     24 C          -8.4601    0.2738   -0.1082 C.3     1  LIG1       0.2400000000000002
     25 C           2.8940    0.6820    0.6591 C.3     1  LIG1       0.08999999999999986
     26 N         -11.3613    3.4131   -4.4243 N.pl3   1  LIG1      -0.7800000000000002
     27 N          10.3040    1.7089    1.4566 N.am    1  LIG1      -0.6299999999999999
     28 N           5.7460    0.1975    1.8191 N.2     1  LIG1         -0.5
     29 N         -12.4895    2.4702   -2.5899 N.ar    1  LIG1        -0.54
     30 N         -11.3518    1.3296   -0.7770 N.ar    1  LIG1        -0.54
     31 N          -8.8182    2.3300   -3.1165 N.ar    1  LIG1      -0.5800000000000001
     32 N          -8.9249    1.1941   -1.1505 N.ar    1  LIG1      -0.4900000000000002
     33 O          13.1946    2.7200   -3.9719 O.3     1  LIG1      -0.6699999999999999
     34 O           9.6872    0.5483    3.3891 O.2     1  LIG1      -0.7100000000000009
     35 O          15.6417    0.3495   -0.3241 O.2     1  LIG1      -0.5199999999999996
     36 O          -9.2659   -1.8838   -0.9652 O.3     1  LIG1      -0.7799999999999994
     37 O           3.1466   -1.7646    0.3648 O.3     1  LIG1      -0.7400000000000002
     38 O           5.5221   -1.9378    0.9314 O.2     1  LIG1      -0.6500000000000004
     39 O          -8.7883   -3.4089    3.4655 O.3     1  LIG1      -0.7100000000000009
     40 O          -9.9475   -3.1982    1.1946 O.3     1  LIG1      -0.7699999999999996
     41 O          -7.6469   -4.4172    1.3113 O.2     1  LIG1      -0.7300000000000004
     42 O          -2.4724   -0.3127   -1.9215 O.3     1  LIG1      -0.7200000000000006
     43 O          -2.4802    1.5470   -0.1162 O.2     1  LIG1      -0.5999999999999996
     44 O           0.5925   -2.3389    0.7039 O.3     1  LIG1      -0.6799999999999997
     45 O          -0.4554   -1.9773   -1.7096 O.2     1  LIG1      -0.6799999999999997
     46 O          -3.8891   -0.6254    0.2060 O.3     1  LIG1      -0.5399999999999991
     47 O           0.8824   -0.1487   -0.5866 O.3     1  LIG1      -0.5700000000000003
     48 O          -7.2329    0.7712    0.3835 O.3     1  LIG1      -0.5600000000000005
     49 O          -7.8224   -1.8555    1.6690 O.3     1  LIG1      -0.6300000000000008
     50 O          -1.4157   -0.8004    0.3710 O.3     1  LIG1      -0.6400000000000006
     51 P          -8.5295   -3.3900    1.9810 P.3     1  LIG1       1.0199999999999996
     52 P          -2.5559    0.0865   -0.3711 P.3     1  LIG1       1.1799999999999997
     53 P          -0.0537   -1.4708   -0.3475 P.3     1  LIG1       1.2100000000000009
     54 S          14.0043   -0.1058    1.6635 S.3     1  LIG1      0.0600000000000005
     55 H           3.0343    1.9219   -1.1235 H       1  LIG1       0.15000000000000002
     56 H           4.5757    1.1842   -0.6210 H       1  LIG1       0.15000000000000002
     57 H           3.3138    0.1938   -1.4080 H       1  LIG1       0.15000000000000002
     58 H           2.6731    1.6136    2.6286 H       1  LIG1          0.14
     59 H           4.2377    1.9131    1.8531 H       1  LIG1       0.18000000000000005
     60 H           2.7677    2.7649    1.2833 H       1  LIG1       0.15000000000000002
     61 H          14.7061    1.0932   -2.5535 H       1  LIG1       0.17000000000000004
     62 H          12.3873    1.0425   -0.5405 H       1  LIG1       0.18000000000000005
     63 H           7.8753    1.7747    0.9175 H       1  LIG1          0.12
     64 H           7.4796    2.0069    2.6280 H       1  LIG1          0.13
     65 H           7.3974   -0.4676    2.9386 H       1  LIG1          0.14
     66 H           7.5864   -0.6964    1.2018 H       1  LIG1          0.13
     67 H          12.3140    2.2508    1.2976 H       1  LIG1          0.12
     68 H          11.8190    1.8819    2.9634 H       1  LIG1       0.09999999999999998
     69 H          11.7386    1.9557   -2.6550 H       1  LIG1       0.17000000000000004
     70 H          12.3907    0.7977   -3.8323 H       1  LIG1       0.17000000000000004
     71 H          11.8350   -0.4297    2.6478 H       1  LIG1       0.18999999999999995
     72 H          11.7103   -0.3402    0.8973 H       1  LIG1       0.18999999999999995
     73 H          -5.3114   -0.6461   -1.3058 H       1  LIG1       0.18999999999999995
     74 H          -5.0592    0.9391   -0.5238 H       1  LIG1       0.18999999999999995
     75 H           0.9394    1.5970    0.4530 H       1  LIG1       0.16000000000000003
     76 H           0.9435    0.1568    1.4787 H       1  LIG1       0.17000000000000004
     77 H         -13.3730    1.6643   -0.9062 H       1  LIG1       0.16000000000000003
     78 H          -7.0805    1.5306   -2.1596 H       1  LIG1       0.20999999999999996
     79 H          -5.9559   -0.2764    1.6470 H       1  LIG1       0.16000000000000003
     80 H          -7.5391   -0.9568   -1.5889 H       1  LIG1       0.06000000000000005
     81 H          -6.5808   -2.4953    0.1292 H       1  LIG1          0.14
     82 H           3.0730   -0.8170    2.2069 H       1  LIG1       0.17000000000000004
     83 H          -9.2382    0.2242    0.6583 H       1  LIG1       0.15000000000000002
     84 H         -10.5492    3.2269   -5.0028 H       1  LIG1          0.37
     85 H         -12.2407    3.3004   -4.9155 H       1  LIG1          0.36
     86 H          12.4731    3.0331   -4.5385 H       1  LIG1       0.43000000000000005
     87 H          -9.7499   -2.7128    0.3193 H       1  LIG1       0.42000000000000004
     88 H           4.7234   -2.3835    0.5524 H       1  LIG1       0.44999999999999996
     89 H          -1.7814   -1.0374   -2.0542 H       1  LIG1          0.48
     90 H           2.2030   -2.0582    0.5410 H       1  LIG1           0.47
@<TRIPOS>BOND
     1    84    26    1
     2    85    26    1
     3    86    33    1
     4    26    21    1
     5    33     8    1
     6    70     8    1
     7    21    17   ar
     8    21    29   ar
     9     8    69    1
    10     8     3    1
    11    31    17   ar
    12    31    13   ar
    13    17    22   ar
    14    29    12   ar
    15    61     3    1
    16     3     4    2
    17    13    78    1
    18    13    32   ar
    19    89    42    1
    20    42    52    1
    21    45    53    2
    22    80    18    1
    23    22    32   ar
    24    22    30   ar
    25    57     1    1
    26    12    77    1
    27    12    30   ar
    28    73    10    1
    29    32    24    1
    30    55     1    1
    31    36    18    1
    32     4    62    1
    33     4    16    1
    34     1    56    1
    35     1    25    1
    36    18    24    1
    37    18    19    1
    38    47    53    1
    39    47    11    1
    40    74    10    1
    41    52    43    2
    42    52    46    1
    43    52    50    1
    44    10    46    1
    45    10    14    1
    46    53    50    1
    47    53    44    1
    48    35    16    2
    49    24    48    1
    50    24    83    1
    51    16    54    1
    52    81    19    1
    53    87    40    1
    54    37    90    1
    55    37    20    1
    56    48    14    1
    57    19    14    1
    58    19    49    1
    59    75    11    1
    60    88    38    1
    61    11    25    1
    62    11    76    1
    63    14    79    1
    64    25    20    1
    65    25     2    1
    66    72     9    1
    67    63     5    1
    68    38    23    1
    69    40    51    1
    70    20    23    1
    71    20    82    1
    72    66     6    1
    73    60     2    1
    74    67     7    1
    75    41    51    2
    76    23    28    2
    77    27     7    1
    78    27    15   am
    79    54     9    1
    80     2    59    1
    81     2    58    1
    82    49    51    1
    83     9     7    1
    84     9    71    1
    85    28     6    1
    86     7    68    1
    87     5     6    1
    88     5    15    1
    89     5    64    1
    90     6    65    1
    91    51    39    1
    92    15    34    2
