@<TRIPOS>MOLECULE
FQPGMQABJNQLLF-VKHMYHEASA-N	6044525	-493.456330839185
 19 18 0 0 0
SMALL
MULLIKEN NwChem

@<TRIPOS>ATOM
      1 C          -0.0442    0.4950    0.8791 C.3     1  LIG1      -0.28000000000000025
      2 C          -0.3591    1.9304    0.4630 C.3     1  LIG1           0.0
      3 CA         -0.5857   -0.5188   -0.1521 C.3     1  LIG1       -0.05999999999999961
      4 C           0.0379   -1.8879    0.1017 C.2     1  LIG1       0.5700000000000003
      5 N          -2.0443   -0.5423   -0.1219 N.3     1  LIG1        -0.75
      6 N           1.6961    2.3942   -0.5506 N.4     1  LIG1      -0.5199999999999996
      7 OXT        -0.5413   -2.8432    0.5724 O.2     1  LIG1      -0.5099999999999998
      8 O           1.3519   -1.9202   -0.2376 O.3     1  LIG1      -0.5800000000000001
      9 O           0.2705    2.2830   -0.7694 O.3     1  LIG1      -0.4399999999999995
     10 H          -0.4934    0.2870    1.8597 H       1  LIG1       0.16000000000000003
     11 H           1.0401    0.3855    0.9818 H       1  LIG1       0.16000000000000003
     12 H          -1.4290    2.0389    0.2619 H       1  LIG1       0.15000000000000002
     13 H          -0.0587    2.6320    1.2525 H       1  LIG1          0.14
     14 HA         -0.2579   -0.1779   -1.1411 H       1  LIG1       0.18000000000000005
     15 H1         -2.3935   -1.0688   -0.9212 H       1  LIG1       0.32999999999999996
     16 H2         -2.3367   -1.0770    0.6967 H       1  LIG1       0.31999999999999995
     17 H           2.0935    1.7225   -1.2112 H       1  LIG1          0.35
     18 H           1.9115    3.3145   -0.9396 H       1  LIG1          0.35
     19 H           1.6745   -2.8122   -0.0077 H       1  LIG1       0.44999999999999996
@<TRIPOS>BOND
     1    17     6    1
     2    14     3    1
     3    18     6    1
     4    15     5    1
     5     9     6    1
     6     9     2    1
     7     8    19    1
     8     8     4    1
     9     3     5    1
    10     3     4    1
    11     3     1    1
    12     5    16    1
    13     4     7    2
    14    12     2    1
    15     2     1    1
    16     2    13    1
    17     1    11    1
    18     1    10    1
