@<TRIPOS>MOLECULE
FRIWJYNKZPJVRL-IUYQGCFVSA-M	6044526	-610.2105712686414
 20 19 0 0 0
SMALL
MULLIKEN NwChem

@<TRIPOS>ATOM
      1 C           1.3731   -1.4608    2.1619 C.3     1  LIG1      -0.46999999999999975
      2 C           1.2169   -0.2861   -0.7077 C.3     1  LIG1       -0.3799999999999999
      3 C           0.7576   -0.0950    1.8474 C.3     1  LIG1       0.16000000000000014
      4 C           1.3752    0.5562    0.5879 C.3     1  LIG1       0.08000000000000007
      5 C          -0.1789   -0.8161   -1.0559 C.2     1  LIG1       0.3700000000000001
      6 C          -1.2843    0.2335   -1.3680 C.2     1  LIG1       0.5199999999999996
      7 O          -0.6424   -0.2823    1.7700 O.3     1  LIG1      -0.7200000000000006
      8 O           0.9254    1.8878    0.4211 O.3     1  LIG1      -0.7100000000000009
      9 O          -0.3773   -2.0182   -1.1383 O.2     1  LIG1      -0.5199999999999996
     10 O          -1.4880    1.0906   -0.4305 O.co2   1  LIG1      -0.6400000000000006
     11 O          -1.8351    0.1557   -2.4692 O.co2   1  LIG1      -0.5899999999999999
     12 H           1.1244   -2.1700    1.3660 H       1  LIG1       0.15000000000000002
     13 H           0.9535   -1.8461    3.0980 H       1  LIG1       0.15000000000000002
     14 H           2.4647   -1.4000    2.2683 H       1  LIG1       0.15000000000000002
     15 H           1.5465    0.3637   -1.5308 H       1  LIG1       0.18000000000000005
     16 H           1.8803   -1.1579   -0.6741 H       1  LIG1       0.17000000000000004
     17 H           0.9979    0.6054    2.6705 H       1  LIG1       0.10999999999999999
     18 H           2.4569    0.6337    0.7782 H       1  LIG1       0.15000000000000002
     19 H          -1.0278    0.3201    1.0834 H       1  LIG1       0.42000000000000004
     20 H          -0.0048    1.8085    0.0868 H       1  LIG1       0.42000000000000004
@<TRIPOS>BOND
     1    11     6   ar
     2    15     2    1
     3     6     5    1
     4     6    10   ar
     5     9     5    2
     6     5     2    1
     7     2    16    1
     8     2     4    1
     9    20     8    1
    10     8     4    1
    11     4    18    1
    12     4     3    1
    13    19     7    1
    14    12     1    1
    15     7     3    1
    16     3     1    1
    17     3    17    1
    18     1    14    1
    19     1    13    1
