@<TRIPOS>MOLECULE
FSBIGDSBMBYOPN-VKHMYHEASA-O	6119239	-642.4783664734831
 25 24 0 0 0
SMALL
MULLIKEN NwChem

@<TRIPOS>ATOM
      1 C          -0.8131   -0.5951   -0.9699 C.3     1  LIG1      -0.33000000000000007
      2 C          -0.6778   -1.0375    0.4854 C.3     1  LIG1       -0.03000000000000025
      3 CA         -1.2357    0.8671   -1.1970 C.3     1  LIG1       -0.07000000000000028
      4 C          -0.9876    1.3519   -2.6463 C.2     1  LIG1       0.6399999999999997
      5 C           2.0447   -1.0771    2.5328 C.2     1  LIG1       0.7199999999999998
      6 N          -2.7274    1.1095   -0.9911 N.4     1  LIG1       -0.7300000000000004
      7 N           2.9604   -1.2454    1.5330 N.pl3   1  LIG1      -0.45999999999999996
      8 N           2.4939   -1.3207    3.7590 N.pl3   1  LIG1      -0.6699999999999999
      9 N           0.7646   -0.6953    2.3176 N.4     1  LIG1      -0.28000000000000025
     10 O          -1.8867    1.8284   -3.3035 O.2     1  LIG1      -0.4900000000000002
     11 OXT         0.2723    1.1842   -3.0018 O.3     1  LIG1      -0.5500000000000007
     12 O           0.4295   -0.2620    1.0444 O.3     1  LIG1      -0.3800000000000008
     13 H          -1.5073   -1.2755   -1.4799 H       1  LIG1       0.21999999999999997
     14 H           0.1543   -0.7260   -1.4644 H       1  LIG1       0.21999999999999997
     15 H          -1.5792   -0.8521    1.0844 H       1  LIG1       0.19999999999999996
     16 H          -0.4373   -2.1039    0.5349 H       1  LIG1       0.19999999999999996
     17 HA         -0.6965    1.5345   -0.5187 H       1  LIG1          0.27
     18 H1         -3.2720    0.2446   -0.8922 H       1  LIG1      0.44999999999999996
     19 H2         -2.9440    1.7175   -0.1939 H       1  LIG1      0.45999999999999996
     20 H3         -3.0429    1.5868   -1.8734 H       1  LIG1      0.44999999999999996
     21 H           2.5175   -1.1451    0.6118 H       1  LIG1          0.39
     22 H           1.9262   -1.2834    4.6008 H       1  LIG1       0.43000000000000005
     23 H           3.4680   -1.6021    3.8554 H       1  LIG1       0.43000000000000005
     24 H           0.1850   -0.3040    3.0594 H       1  LIG1       0.43999999999999995
     25 HXT         0.4134    1.5184   -3.9132 H       1  LIG1           0.48
@<TRIPOS>BOND
     1    25    11    1
     2    10     4    2
     3    11     4    1
     4     4     3    1
     5    20     6    1
     6    13     1    1
     7    14     1    1
     8     3     6    1
     9     3     1    1
    10     3    17    1
    11     6    18    1
    12     6    19    1
    13     1     2    1
    14     2    16    1
    15     2    12    1
    16     2    15    1
    17    21     7    1
    18    12     9    1
    19     7     5    2
    20     9     5    1
    21     9    24    1
    22     5     8    1
    23     8    23    1
    24     8    22    1
