@<TRIPOS>MOLECULE
FSMCJUNYLQOAIM-UQBZCTSOSA-N	6044529	-1741.8176642461592
 95 99 0 0 0
SMALL
MULLIKEN NwChem

@<TRIPOS>ATOM
      1 C          -6.3795   -3.9310   -0.5943 C.3     1  LIG1      -0.45999999999999996
      2 C          -5.7556   -4.4790    1.7933 C.3     1  LIG1      -0.45999999999999996
      3 C          -1.8322   -7.2696   -0.7842 C.3     1  LIG1      -0.46999999999999975
      4 C          -0.1736    1.2205    0.7525 C.3     1  LIG1         -0.5
      5 C          -2.2611   -2.7106   -1.8559 C.3     1  LIG1      -0.5099999999999998
      6 C          -4.7716   -6.4831   -1.4538 C.3     1  LIG1      -0.28000000000000025
      7 C          -5.2142   -6.1391   -0.0218 C.3     1  LIG1      -0.2599999999999998
      8 C          -3.4985   -5.7712   -1.9574 C.3     1  LIG1      -0.28000000000000025
      9 C           0.8516    0.7449   -2.6883 C.2     1  LIG1      -0.2400000000000002
     10 C           0.4037   -0.6660   -2.9904 C.3     1  LIG1      -0.3099999999999996
     11 C          -0.5980   -5.0790   -2.9250 C.3     1  LIG1      -0.2999999999999998
     12 C           0.2385   -3.7916   -3.2138 C.3     1  LIG1      -0.2999999999999998
     13 C           2.8167    1.6503    0.8606 C.3     1  LIG1      -0.3200000000000003
     14 C           0.0762   -1.9515    0.6229 C.3     1  LIG1      -0.29000000000000004
     15 C           2.1952    0.3001    0.4620 C.3     1  LIG1      -0.29000000000000004
     16 C          -0.9964   -3.0325    0.3262 C.3     1  LIG1      -0.3099999999999996
     17 C           1.5609    2.6543   -1.2624 C.3     1  LIG1      -0.3799999999999999
     18 C           4.1110    4.4975    2.8057 C.3     1  LIG1       -0.040000000000000036
     19 C          -5.3707   -4.6430    0.3162 C.3     1  LIG1      -0.08000000000000007
     20 C          -2.2800   -5.8143   -1.0090 C.3     1  LIG1      -0.08999999999999986
     21 C           1.0332    1.2448   -1.4583 C.2     1  LIG1      0.17999999999999972
     22 C           2.4868    2.8799   -0.0304 C.3     1  LIG1       0.1299999999999999
     23 C           0.7126   -1.5722   -1.7912 C.3     1  LIG1      -0.09999999999999964
     24 C          -1.0615   -4.9572   -1.4469 C.3     1  LIG1      -0.08999999999999986
     25 C           0.2848   -3.0574   -1.8614 C.3     1  LIG1      -0.11000000000000032
     26 C           0.1314   -0.9162   -0.5149 C.3     1  LIG1      -0.11000000000000032
     27 C           3.5699    5.8394    2.2848 C.3     1  LIG1       0.07000000000000028
     28 C           2.4448    6.4277    3.1420 C.3     1  LIG1       0.08000000000000007
     29 C           1.0458    5.8545    2.7936 C.3     1  LIG1       0.08000000000000007
     30 C           0.8213    5.9363    1.2681 C.3     1  LIG1       0.07000000000000028
     31 C           1.9670    5.2113    0.5391 C.3     1  LIG1       0.33000000000000007
     32 C           0.7933    0.4476   -0.1800 C.3     1  LIG1      0.03000000000000025
     33 C          -1.0654   -3.4181   -1.1802 C.3     1  LIG1      0.11000000000000032
     34 O           5.0720    3.9653    1.9090 O.3     1  LIG1      -0.6799999999999997
     35 O           2.4744    7.8488    2.9111 O.3     1  LIG1      -0.6699999999999999
     36 O           0.8809    4.5451    3.3119 O.3     1  LIG1      -0.6999999999999993
     37 O           0.7153    7.2706    0.8147 O.3     1  LIG1      -0.6799999999999997
     38 O           1.8606    3.8388    0.8653 O.3     1  LIG1      -0.5500000000000007
     39 O           3.2332    5.7464    0.8776 O.3     1  LIG1      -0.5299999999999994
     40 H          -7.3707   -4.4000   -0.5230 H       1  LIG1          0.14
     41 H          -6.0700   -3.9612   -1.6448 H       1  LIG1       0.15000000000000002
     42 H          -6.4910   -2.8780   -0.3091 H       1  LIG1          0.14
     43 H          -6.7331   -4.9326    1.9974 H       1  LIG1          0.14
     44 H          -5.0239   -4.9637    2.4508 H       1  LIG1          0.14
     45 H          -5.8104   -3.4223    2.0802 H       1  LIG1          0.14
     46 H          -1.4847   -7.7156   -1.7246 H       1  LIG1          0.14
     47 H          -1.0077   -7.3249   -0.0626 H       1  LIG1          0.14
     48 H          -2.6477   -7.8937   -0.4009 H       1  LIG1       0.15000000000000002
     49 H          -1.1420    1.3578    0.2566 H       1  LIG1          0.14
     50 H          -0.3509    0.6637    1.6798 H       1  LIG1       0.15000000000000002
     51 H           0.1904    2.2106    1.0320 H       1  LIG1       0.17000000000000004
     52 H          -3.1985   -2.9667   -1.3528 H       1  LIG1       0.16000000000000003
     53 H          -2.1644   -1.6250   -1.8071 H       1  LIG1       0.16000000000000003
     54 H          -2.3617   -2.9779   -2.9118 H       1  LIG1       0.15000000000000002
     55 H          -4.6445   -7.5714   -1.5185 H       1  LIG1          0.13
     56 H          -5.5833   -6.2440   -2.1524 H       1  LIG1          0.13
     57 H          -4.4984   -6.5754    0.6894 H       1  LIG1          0.13
     58 H          -6.1724   -6.6427    0.1720 H       1  LIG1          0.12
     59 H          -3.2198   -6.2254   -2.9169 H       1  LIG1          0.13
     60 H          -3.7562   -4.7352   -2.1864 H       1  LIG1          0.14
     61 H           1.0718    1.3802   -3.5468 H       1  LIG1          0.12
     62 H          -0.6700   -0.6835   -3.2371 H       1  LIG1       0.15000000000000002
     63 H           0.9216   -1.0278   -3.8902 H       1  LIG1          0.14
     64 H          -1.4523   -5.1342   -3.6063 H       1  LIG1          0.14
     65 H          -0.0141   -5.9917   -3.0826 H       1  LIG1          0.13
     66 H           1.2404   -4.0155   -3.5912 H       1  LIG1          0.13
     67 H          -0.2521   -3.1777   -3.9769 H       1  LIG1          0.14
     68 H           2.4664    1.9072    1.8637 H       1  LIG1       0.17000000000000004
     69 H           3.9032    1.5574    0.9490 H       1  LIG1       0.15000000000000002
     70 H          -0.1425   -1.4798    1.5856 H       1  LIG1          0.14
     71 H           1.0628   -2.4201    0.7316 H       1  LIG1          0.14
     72 H           2.1453   -0.3314    1.3565 H       1  LIG1          0.14
     73 H           2.8420   -0.2229   -0.2524 H       1  LIG1          0.14
     74 H          -1.9749   -2.6589    0.6546 H       1  LIG1          0.14
     75 H          -0.7923   -3.9208    0.9378 H       1  LIG1          0.13
     76 H           0.7120    3.3390   -1.1364 H       1  LIG1       0.18000000000000005
     77 H           2.0781    2.9769   -2.1747 H       1  LIG1       0.16000000000000003
     78 H           4.6143    4.6730    3.7629 H       1  LIG1       0.16000000000000003
     79 H           3.2955    3.7893    2.9881 H       1  LIG1          0.14
     80 H          -4.3940   -4.1579    0.1760 H       1  LIG1          0.14
     81 H          -2.5907   -5.4160   -0.0325 H       1  LIG1          0.13
     82 H           3.4195    3.3366   -0.3749 H       1  LIG1       0.16000000000000003
     83 H           1.8092   -1.5733   -1.6962 H       1  LIG1          0.12
     84 H          -0.2295   -5.3274   -0.8296 H       1  LIG1       0.10999999999999999
     85 H           1.0368   -3.5910   -1.2613 H       1  LIG1          0.12
     86 H          -0.9087   -0.6537   -0.7449 H       1  LIG1          0.13
     87 H           4.3986    6.5526    2.2837 H       1  LIG1       0.17000000000000004
     88 H           2.6613    6.2046    4.1962 H       1  LIG1       0.17000000000000004
     89 H           0.2871    6.4860    3.2774 H       1  LIG1       0.16000000000000003
     90 H          -0.1171    5.4319    1.0147 H       1  LIG1       0.17000000000000004
     91 H           1.8783    5.3747   -0.5396 H       1  LIG1       0.17000000000000004
     92 H           4.7718    4.2212    1.0204 H       1  LIG1       0.43000000000000005
     93 H           1.7637    8.2485    3.4395 H       1  LIG1       0.43999999999999995
     94 H           1.1758    3.9266    2.6178 H       1  LIG1       0.45999999999999996
     95 H           1.4936    7.7443    1.1661 H       1  LIG1       0.42000000000000004
@<TRIPOS>BOND
     1    67    12    1
     2    63    10    1
     3    64    11    1
     4    66    12    1
     5    61     9    1
     6    62    10    1
     7    12    11    1
     8    12    25    1
     9    65    11    1
    10    10     9    1
    11    10    23    1
    12    11    24    1
    13    59     8    1
    14    54     5    1
    15     9    21    2
    16    60     8    1
    17    77    17    1
    18    56     6    1
    19     8     6    1
    20     8    20    1
    21    25    23    1
    22    25    85    1
    23    25    33    1
    24     5    53    1
    25     5    52    1
    26     5    33    1
    27    23    83    1
    28    23    26    1
    29    46     3    1
    30    41     1    1
    31    55     6    1
    32    21    17    1
    33    21    32    1
    34     6     7    1
    35    24    33    1
    36    24    20    1
    37    24    84    1
    38    17    76    1
    39    17    22    1
    40    33    16    1
    41    20     3    1
    42    20    81    1
    43     3    48    1
    44     3    47    1
    45    86    26    1
    46     1    40    1
    47     1    42    1
    48     1    19    1
    49    91    31    1
    50    26    32    1
    51    26    14    1
    52    82    22    1
    53    73    15    1
    54    32    15    1
    55    32     4    1
    56    22    13    1
    57    22    38    1
    58     7    58    1
    59     7    19    1
    60     7    57    1
    61    80    19    1
    62    49     4    1
    63    19     2    1
    64    16    14    1
    65    16    74    1
    66    16    75    1
    67    15    13    1
    68    15    72    1
    69    31    38    1
    70    31    39    1
    71    31    30    1
    72    14    71    1
    73    14    70    1
    74     4    51    1
    75     4    50    1
    76    37    95    1
    77    37    30    1
    78    13    69    1
    79    13    68    1
    80    39    27    1
    81    90    30    1
    82    92    34    1
    83    30    29    1
    84     2    43    1
    85     2    45    1
    86     2    44    1
    87    34    18    1
    88    87    27    1
    89    27    18    1
    90    27    28    1
    91    94    36    1
    92    29    28    1
    93    29    89    1
    94    29    36    1
    95    18    79    1
    96    18    78    1
    97    35    28    1
    98    35    93    1
    99    28    88    1
