@<TRIPOS>MOLECULE
FTDHDKPUHBLBTL-SHYZEUOFSA-K	11152517	-1949.7991672907094
 36 37 0 0 0
SMALL
MULLIKEN NwChem

@<TRIPOS>ATOM
      1 C          -3.7662   -1.4984    2.3807 C.ar    1  LIG1      -0.2699999999999996
      2 C          -2.7085   -0.8104    1.8950 C.ar    1  LIG1       0.07000000000000028
      3 C           0.2525    0.2761    2.1917 C.3     1  LIG1       -0.34999999999999964
      4 C           0.1114    1.2251   -1.4668 C.3     1  LIG1       -0.1200000000000001
      5 C           0.9874    0.3622    0.8354 C.3     1  LIG1       0.11000000000000032
      6 C           0.0962    1.3511    0.0480 C.3     1  LIG1       0.1200000000000001
      7 C          -4.4624   -1.0100    3.5818 C.ar    1  LIG1       0.41000000000000014
      8 C          -1.0989    1.0134    1.9823 C.3     1  LIG1       0.28000000000000025
      9 C          -2.9543    0.8322    3.6934 C.ar    1  LIG1       0.6500000000000004
     10 N          -5.4992   -1.6349    4.1103 N.pl3   1  LIG1      -0.8200000000000003
     11 N          -4.0063    0.1469    4.1682 N.ar    1  LIG1      -0.6699999999999999
     12 N          -2.2718    0.3354    2.5032 N.ar    1  LIG1         -0.5
     13 O           2.3150    0.8041    0.9945 O.3     1  LIG1      -0.7400000000000002
     14 O          -2.4969    1.8755    4.2011 O.2     1  LIG1      -0.6600000000000001
     15 O           3.1624    2.2295   -2.4659 O.3     1  LIG1      -0.7200000000000006
     16 O           3.4971   -0.0336   -1.2585 O.3     1  LIG1      -0.7899999999999991
     17 O           4.6020    0.3416   -3.5816 O.2     1  LIG1      -0.6899999999999995
     18 O           1.8056   -1.8277   -1.7027 O.3     1  LIG1        -0.75
     19 O           0.2443   -1.8216   -3.7672 O.2     1  LIG1      -0.6400000000000006
     20 O          -0.1240   -0.1148   -1.9156 O.3     1  LIG1      -0.5700000000000003
     21 O          -1.2310    1.1664    0.5631 O.3     1  LIG1      -0.5399999999999991
     22 O           1.9927    0.0827   -3.3774 O.3     1  LIG1      -0.6999999999999993
     23 P           3.5197    0.7667   -2.6207 P.3     1  LIG1       1.0899999999999999
     24 P           0.9867   -0.9780   -2.7844 P.3     1  LIG1       1.1799999999999997
     25 H          -4.1080   -2.3981    1.8721 H       1  LIG1          0.14
     26 H          -2.1659   -1.0898    0.9959 H       1  LIG1       0.18000000000000005
     27 H           0.0784   -0.7579    2.5078 H       1  LIG1       0.17000000000000004
     28 H           0.8506    0.7715    2.9635 H       1  LIG1       0.16000000000000003
     29 H          -0.7018    1.8473   -1.8696 H       1  LIG1       0.16000000000000003
     30 H           1.0615    1.6218   -1.8416 H       1  LIG1       0.18999999999999995
     31 H           0.9490   -0.6064    0.3218 H       1  LIG1          0.14
     32 H           0.4484    2.3701    0.2959 H       1  LIG1          0.13
     33 H          -1.0888    1.9902    2.4744 H       1  LIG1       0.16000000000000003
     34 H          -5.6695   -2.4635    3.5232 H       1  LIG1          0.27
     35 H           2.7988    0.6016    0.1382 H       1  LIG1       0.44999999999999996
     36 H           2.6079   -1.2040   -1.4229 H       1  LIG1           0.47
@<TRIPOS>BOND
     1    19    24    2
     2    17    23    2
     3    22    24    1
     4    22    23    1
     5    24    20    1
     6    24    18    1
     7    23    15    1
     8    23    16    1
     9    20     4    1
    10    29     4    1
    11    30     4    1
    12    18    36    1
    13     4     6    1
    14     6    32    1
    15     6    21    1
    16     6     5    1
    17    35    13    1
    18    31     5    1
    19    21     8    1
    20     5    13    1
    21     5     3    1
    22    26     2    1
    23    25     1    1
    24     2     1   ar
    25     2    12   ar
    26     8     3    1
    27     8    33    1
    28     8    12    1
    29     3    27    1
    30     3    28    1
    31     1     7   ar
    32    12     9   ar
    33    34    10    1
    34     7    10    1
    35     7    11   ar
    36     9    11   ar
    37     9    14    2
