@<TRIPOS>MOLECULE
FTQSFEZUHZHOAT-BRZOAGJPSA-N	6044532	-1435.9488985980684
 82 82 0 0 0
SMALL
MULLIKEN NwChem

@<TRIPOS>ATOM
      1 C           2.7528    3.3971    1.5634 C.3     1  LIG1      -0.5499999999999998
      2 C          -2.0285   -2.3910    1.0441 C.3     1  LIG1      -0.5499999999999998
      3 C           5.1464    6.2397    5.4774 C.3     1  LIG1        -0.54
      4 C          -0.4843   -0.9484   -5.4873 C.3     1  LIG1        -0.54
      5 C           3.3985    2.6673   11.0250 C.3     1  LIG1      -0.5499999999999998
      6 C          -6.2642   -3.1822   -6.6645 C.3     1  LIG1      -0.5300000000000002
      7 C          -1.9786   -5.5223   -7.7899 C.3     1  LIG1      -0.46999999999999975
      8 C          -2.4759   -3.7716   -9.5426 C.3     1  LIG1      -0.46999999999999975
      9 C           0.8082    1.0070    1.2952 C.2     1  LIG1      -0.15000000000000036
     10 C          -0.0586   -0.0523    1.2366 C.2     1  LIG1      -0.1299999999999999
     11 C           3.3271    3.9881    4.4410 C.2     1  LIG1      -0.15000000000000036
     12 C          -1.4267   -1.7405   -2.6634 C.2     1  LIG1      -0.1200000000000001
     13 C           4.2311    4.5264    8.7611 C.2     1  LIG1      -0.13999999999999968
     14 C          -5.2590   -5.2111   -9.8034 C.3     1  LIG1      -0.28000000000000025
     15 C           1.2864    1.5557    2.5204 C.2     1  LIG1      -0.20999999999999996
     16 C          -0.5326   -0.6209    0.0181 C.2     1  LIG1      -0.21999999999999975
     17 C           2.4855    2.9830    4.0505 C.2     1  LIG1      -0.1900000000000004
     18 C          -1.8010   -2.1832   -1.4287 C.2     1  LIG1      -0.20999999999999996
     19 C           3.5884    4.2708    5.8166 C.2     1  LIG1      -0.1900000000000004
     20 C           4.5875    5.3943    7.7689 C.2     1  LIG1      -0.17999999999999972
     21 C          -1.8802   -2.3390   -3.8841 C.2     1  LIG1      -0.20000000000000018
     22 C           4.4418    4.8065   10.1476 C.2     1  LIG1      -0.16000000000000014
     23 C          -6.1098   -4.6973   -8.6438 C.3     1  LIG1      -0.33000000000000007
     24 C          -2.0898   -2.6750   -6.3221 C.2     1  LIG1      -0.20000000000000018
     25 C          -3.3298   -3.2174   -6.3890 C.2     1  LIG1      -0.20999999999999996
     26 C          -3.9601   -5.7856   -9.2494 C.3     1  LIG1      -0.28000000000000025
     27 C           4.3858    4.4693   12.5555 C.2     1  LIG1       0.16999999999999993
     28 C           2.1482    2.6119    2.7033 C.2     1  LIG1      0.16000000000000014
     29 C          -1.4032   -1.6714   -0.1305 C.2     1  LIG1      0.15000000000000036
     30 C           4.3979    5.2465    6.3395 C.2     1  LIG1      0.1200000000000001
     31 C          -1.5184   -2.0019   -5.1582 C.2     1  LIG1      0.13999999999999968
     32 C           4.0848    4.0019   11.1900 C.2     1  LIG1      0.07000000000000028
     33 C          -5.3341   -3.9438   -7.5816 C.2     1  LIG1      0.08000000000000007
     34 C          -3.9734   -3.9494   -7.4897 C.2     1  LIG1      0.09999999999999964
     35 C          -3.1018   -4.7339   -8.5017 C.3     1  LIG1      0.04999999999999982
     36 O           4.9387    5.5204   12.8448 O.2     1  LIG1         -0.5
     37 H           2.4232    3.0457    0.5845 H       1  LIG1       0.17000000000000004
     38 H           3.8480    3.3363    1.5872 H       1  LIG1       0.17000000000000004
     39 H           2.4894    4.4594    1.6409 H       1  LIG1       0.17000000000000004
     40 H          -3.1233   -2.3297    0.9886 H       1  LIG1       0.17000000000000004
     41 H          -1.7685   -3.4572    1.0272 H       1  LIG1       0.17000000000000004
     42 H          -1.7259   -1.9913    2.0130 H       1  LIG1       0.17000000000000004
     43 H           5.0080    7.2599    5.8569 H       1  LIG1       0.17000000000000004
     44 H           6.2257    6.0371    5.4937 H       1  LIG1       0.17000000000000004
     45 H           4.8221    6.2297    4.4346 H       1  LIG1       0.17000000000000004
     46 H           0.3260   -1.3865   -6.0864 H       1  LIG1       0.17000000000000004
     47 H          -0.9246   -0.1469   -6.0942 H       1  LIG1       0.17000000000000004
     48 H          -0.0309   -0.4920   -4.6059 H       1  LIG1       0.17000000000000004
     49 H           4.0439    1.9326   10.5253 H       1  LIG1       0.17000000000000004
     50 H           3.1171    2.2481   11.9979 H       1  LIG1       0.17000000000000004
     51 H           2.4811    2.7508   10.4290 H       1  LIG1       0.17000000000000004
     52 H          -6.7594   -2.3785   -7.2279 H       1  LIG1       0.17000000000000004
     53 H          -7.0658   -3.8425   -6.3038 H       1  LIG1       0.16000000000000003
     54 H          -5.7901   -2.7194   -5.7984 H       1  LIG1       0.17000000000000004
     55 H          -1.4664   -6.1643   -8.5167 H       1  LIG1          0.14
     56 H          -1.2293   -4.8792   -7.3259 H       1  LIG1       0.15000000000000002
     57 H          -2.3946   -6.1650   -7.0049 H       1  LIG1          0.14
     58 H          -3.2476   -3.2232  -10.0909 H       1  LIG1       0.15000000000000002
     59 H          -1.8184   -3.0305   -9.0816 H       1  LIG1       0.16000000000000003
     60 H          -1.8771   -4.3379  -10.2679 H       1  LIG1       0.15000000000000002
     61 H           1.1435    1.4449    0.3567 H       1  LIG1       0.15000000000000002
     62 H          -0.3938   -0.4808    2.1793 H       1  LIG1       0.15000000000000002
     63 H           3.8197    4.5903    3.6827 H       1  LIG1       0.16000000000000003
     64 H          -0.7488   -0.8941   -2.7363 H       1  LIG1       0.16000000000000003
     65 H           3.7702    3.5755    8.5029 H       1  LIG1       0.16000000000000003
     66 H          -5.0446   -4.3931  -10.5016 H       1  LIG1          0.14
     67 H          -5.8092   -5.9709  -10.3727 H       1  LIG1          0.14
     68 H           0.9183    1.0662    3.4239 H       1  LIG1       0.15000000000000002
     69 H          -0.1424   -0.1553   -0.8855 H       1  LIG1       0.15000000000000002
     70 H           2.0159    2.3912    4.8374 H       1  LIG1       0.15000000000000002
     71 H          -2.4860   -3.0319   -1.3995 H       1  LIG1          0.14
     72 H           3.0586    3.6304    6.5213 H       1  LIG1       0.15000000000000002
     73 H           5.0910    6.3114    8.0799 H       1  LIG1       0.16000000000000003
     74 H          -2.5704   -3.1736   -3.7674 H       1  LIG1          0.14
     75 H           4.9262    5.7479   10.4066 H       1  LIG1       0.15000000000000002
     76 H          -6.9222   -4.0574   -9.0160 H       1  LIG1       0.15000000000000002
     77 H          -6.6167   -5.5440   -8.1515 H       1  LIG1       0.16000000000000003
     78 H          -1.4546   -2.6766   -7.2033 H       1  LIG1       0.15000000000000002
     79 H          -3.9438   -3.0809   -5.5032 H       1  LIG1       0.15000000000000002
     80 H          -4.2050   -6.6007   -8.5528 H       1  LIG1          0.13
     81 H          -3.3539   -6.2281  -10.0500 H       1  LIG1          0.13
     82 H           4.0613    3.7711   13.3613 H       1  LIG1           0.12
@<TRIPOS>BOND
     1    66    14    1
     2    67    14    1
     3    60     8    1
     4    58     8    1
     5    81    26    1
     6    14    26    1
     7    14    23    1
     8     8    59    1
     9     8    35    1
    10    26    80    1
    11    26    35    1
    12    76    23    1
    13    23    77    1
    14    23    33    1
    15    55     7    1
    16    35     7    1
    17    35    34    1
    18     7    56    1
    19     7    57    1
    20    33    34    2
    21    33     6    1
    22    34    25    1
    23    52     6    1
    24    78    24    1
    25     6    53    1
    26     6    54    1
    27    25    24    2
    28    25    79    1
    29    24    31    1
    30    47     4    1
    31    46     4    1
    32     4    31    1
    33     4    48    1
    34    31    21    2
    35    21    74    1
    36    21    12    1
    37    64    12    1
    38    12    18    2
    39    18    71    1
    40    18    29    1
    41    69    16    1
    42    29    16    2
    43    29     2    1
    44    16    10    1
    45    61     9    1
    46    37     1    1
    47    40     2    1
    48    41     2    1
    49     2    42    1
    50    10     9    2
    51    10    62    1
    52     9    15    1
    53     1    38    1
    54     1    39    1
    55     1    28    1
    56    15    28    2
    57    15    68    1
    58    28    17    1
    59    63    11    1
    60    17    11    2
    61    17    70    1
    62    45     3    1
    63    11    19    1
    64     3    44    1
    65     3    43    1
    66     3    30    1
    67    19    30    2
    68    19    72    1
    69    30    20    1
    70    20    73    1
    71    20    13    2
    72    65    13    1
    73    13    22    1
    74    22    75    1
    75    22    32    2
    76    51     5    1
    77    49     5    1
    78     5    32    1
    79     5    50    1
    80    32    27    1
    81    27    36    2
    82    27    82    1
