@<TRIPOS>MOLECULE
FVOLNXKBISLPQY-IBGZPJMESA-O	6044533	-991.9807328567246
 65 64 0 0 0
SMALL
MULLIKEN NwChem

@<TRIPOS>ATOM
      1 C1         -8.4988    3.6218    3.0122 C.3     1  <1>       -0.45999999999999996
      2 C2         -7.9651    2.1889    2.9022 C.3     1  <1>       -0.2599999999999998
      3 C3         -7.5605    1.7810    1.4757 C.3     1  <1>       -0.2599999999999998
      4 C4         -6.4576    2.6423    0.8338 C.3     1  <1>       -0.2699999999999996
      5 C5         -5.1493    2.7329    1.6388 C.3     1  <1>       -0.2699999999999996
      6 C6         -4.4890    1.3829    1.9679 C.3     1  <1>       -0.2699999999999996
      7 C7         -4.1583    0.5039    0.7488 C.3     1  <1>       -0.2699999999999996
      8 C8         -3.2535    1.1648   -0.3056 C.3     1  <1>       -0.2699999999999996
      9 C9         -1.8950    1.6633    0.2179 C.3     1  <1>       -0.2699999999999996
     10 C10        -1.0236    0.5921    0.8972 C.3     1  <1>       -0.2699999999999996
     11 C11        -0.7120   -0.6411    0.0307 C.3     1  <1>       -0.2699999999999996
     12 C12        -0.0357   -0.3372   -1.3175 C.3     1  <1>       -0.2699999999999996
     13 C13         1.2829    0.4504   -1.2216 C.3     1  <1>       -0.2699999999999996
     14 C14         2.3687   -0.1992   -0.3459 C.3     1  <1>       -0.2699999999999996
     15 C15         2.7510   -1.6336   -0.7531 C.3     1  <1>       -0.28000000000000025
     16 C16         3.2157   -1.8034   -2.2071 C.3     1  <1>       -0.28000000000000025
     17 C17         4.4144   -0.8991   -2.6085 C.3     1  <1>        -0.3600000000000003
     18 C18         6.1730   -3.2503   -0.6467 C.3     1  <1>        -0.04999999999999982
     19 C19         6.5700   -2.1578   -1.6717 C.3     1  <1>        -0.09999999999999964
     20 C20         5.5911   -0.9425   -1.6804 C.2     1  <1>        0.4900000000000002
     21 N1          7.8878   -1.5507   -1.2256 N.4     1  <1>        -0.7300000000000004
     22 O1          5.1616   -4.0341   -1.2190 O.3     1  <1>       -0.6400000000000006
     23 O2          5.8769   -0.0444   -0.9019 O.2     1  <1>       -0.4900000000000002
     24 H1         -7.7306    4.3614    2.7586 H       1  <1>        0.15000000000000002
     25 H2         -8.8418    3.8387    4.0300 H       1  <1>           0.14
     26 H3         -9.3462    3.7787    2.3330 H       1  <1>           0.14
     27 H4         -7.1105    2.0651    3.5813 H       1  <1>           0.14
     28 H5         -8.7337    1.4898    3.2573 H       1  <1>           0.13
     29 H6         -7.2429    0.7294    1.4854 H       1  <1>           0.14
     30 H7         -8.4497    1.8206    0.8308 H       1  <1>           0.13
     31 H8         -6.2459    2.2454   -0.1682 H       1  <1>           0.14
     32 H9         -6.8360    3.6600    0.6736 H       1  <1>           0.13
     33 H10        -4.4403    3.3611    1.0826 H       1  <1>           0.13
     34 H11        -5.3385    3.2644    2.5807 H       1  <1>           0.13
     35 H12        -3.5715    1.5737    2.5412 H       1  <1>           0.13
     36 H13        -5.1429    0.8111    2.6389 H       1  <1>           0.13
     37 H14        -3.6911   -0.4249    1.1044 H       1  <1>           0.13
     38 H15        -5.0906    0.1956    0.2583 H       1  <1>           0.14
     39 H16        -3.0920    0.4503   -1.1246 H       1  <1>           0.13
     40 H17        -3.7813    2.0148   -0.7563 H       1  <1>           0.14
     41 H18        -1.3415    2.1112   -0.6189 H       1  <1>           0.13
     42 H19        -2.0566    2.4794    0.9338 H       1  <1>           0.13
     43 H20        -0.0848    1.0610    1.2235 H       1  <1>           0.14
     44 H21        -1.5171    0.2505    1.8157 H       1  <1>           0.13
     45 H22        -0.0823   -1.3286    0.6134 H       1  <1>           0.13
     46 H23        -1.6409   -1.1899   -0.1680 H       1  <1>           0.14
     47 H24         0.1365   -1.2856   -1.8463 H       1  <1>           0.14
     48 H25        -0.7277    0.2298   -1.9517 H       1  <1>           0.14
     49 H26         1.6715    0.6126   -2.2374 H       1  <1>           0.14
     50 H27         1.0817    1.4520   -0.8234 H       1  <1>           0.14
     51 H28         3.2643    0.4357   -0.3534 H       1  <1>           0.13
     52 H29         2.0293   -0.2230    0.6965 H       1  <1>           0.14
     53 H30         3.5398   -1.9903   -0.0697 H       1  <1>           0.14
     54 H31         1.8951   -2.3008   -0.5957 H       1  <1>        0.15000000000000002
     55 H32         3.4708   -2.8468   -2.4035 H       1  <1>        0.16000000000000003
     56 H33         2.4015   -1.5441   -2.8910 H       1  <1>        0.17000000000000004
     57 H34         4.7544   -1.1918   -3.6107 H       1  <1>        0.19999999999999996
     58 H35         4.0971    0.1463   -2.6410 H       1  <1>        0.18999999999999995
     59 H36         7.0604   -3.8727   -0.4423 H       1  <1>        0.18000000000000005
     60 H37         5.8737   -2.7685    0.2941 H       1  <1>        0.19999999999999996
     61 H38         6.6997   -2.6141   -2.6547 H       1  <1>           0.24
     62 H39         8.4878   -2.2045   -0.7107 H       1  <1>       0.44999999999999996
     63 H40         8.4287   -1.1697   -2.0095 H       1  <1>       0.45999999999999996
     64 H41         7.6043   -0.7475   -0.6168 H       1  <1>       0.43999999999999995
     65 H42         4.4336   -4.1450   -0.5889 H       1  <1>        0.45999999999999996
@<TRIPOS>BOND
     1    57    17    1
     2    56    16    1
     3    61    19    1
     4    58    17    1
     5    17    16    1
     6    17    20    1
     7    55    16    1
     8    49    13    1
     9    16    15    1
    10    63    21    1
    11    48    12    1
    12    47    12    1
    13    20    19    1
    14    20    23    2
    15    19    21    1
    16    19    18    1
    17    12    13    1
    18    12    11    1
    19    21    62    1
    20    21    64    1
    21    13    50    1
    22    13    14    1
    23    22    18    1
    24    22    65    1
    25    39     8    1
    26    40     8    1
    27    15    54    1
    28    15    14    1
    29    15    53    1
    30    18    59    1
    31    18    60    1
    32    41     9    1
    33    51    14    1
    34    14    52    1
    35     8     9    1
    36     8     7    1
    37    31     4    1
    38    46    11    1
    39    11    45    1
    40    11    10    1
    41     9    10    1
    42     9    42    1
    43    38     7    1
    44    32     4    1
    45     7    37    1
    46     7     6    1
    47    30     3    1
    48     4     3    1
    49     4     5    1
    50    10    43    1
    51    10    44    1
    52    33     5    1
    53     3    29    1
    54     3     2    1
    55     5     6    1
    56     5    34    1
    57     6    35    1
    58     6    36    1
    59    26     1    1
    60    24     1    1
    61     2     1    1
    62     2    28    1
    63     2    27    1
    64     1    25    1
