@<TRIPOS>MOLECULE
FXDNYOANAXWZHG-VKHMYHEASA-L	6044536	-1004.9781077196625
 20 19 0 0 0
SMALL
MULLIKEN NwChem

@<TRIPOS>ATOM
      1 C          -0.9961    0.5146   -0.9711 C.3     1  LIG1      -0.29000000000000004
      2 C          -1.1141   -1.0132   -0.9995 C.3     1  LIG1       -0.019999999999999574
      3 CA         -1.2619    1.1255    0.4153 C.3     1  LIG1       -0.08000000000000007
      4 C          -0.4677    2.4644    0.5672 C.2     1  LIG1       0.5300000000000002
      5 N          -2.7226    1.2910    0.6514 N.3     1  LIG1      -0.7800000000000002
      6 OXT        -1.1445    3.5242    0.6769 O.co2   1  LIG1      -0.6600000000000001
      7 O           0.7916    2.3490    0.5407 O.co2   1  LIG1      -0.6500000000000004
      8 O           1.6922   -1.1650   -1.6230 O.2     1  LIG1      -0.7300000000000004
      9 O           1.7356   -0.3413    0.8508 O.3     1  LIG1      -0.7699999999999996
     10 O           1.9327   -2.8310    0.4200 O.3     1  LIG1      -0.6999999999999993
     11 O          -0.2936   -1.6674   -0.0456 O.3     1  LIG1      -0.6099999999999994
     12 P           1.3974   -1.5668   -0.1948 P.3     1  LIG1       1.0600000000000005
     13 H          -1.7061    0.9461   -1.6956 H       1  LIG1          0.13
     14 H           0.0134    0.7747   -1.2996 H       1  LIG1          0.14
     15 H          -2.1499   -1.3006   -0.7579 H       1  LIG1          0.13
     16 H          -0.8782   -1.3703   -2.0147 H       1  LIG1          0.13
     17 HA         -0.8512    0.4247    1.1498 H       1  LIG1          0.14
     18 H1         -2.8548    1.2386    1.6645 H       1  LIG1       0.31000000000000005
     19 H2         -2.8419    2.2977    0.4729 H       1  LIG1       0.30000000000000004
     20 H           1.4181    0.5546    0.5682 H       1  LIG1       0.43000000000000005
@<TRIPOS>BOND
     1    16     2    1
     2    13     1    1
     3     8    12    2
     4    14     1    1
     5     2     1    1
     6     2    15    1
     7     2    11    1
     8     1     3    1
     9    12    11    1
    10    12    10    1
    11    12     9    1
    12     3     4    1
    13     3     5    1
    14     3    17    1
    15    19     5    1
    16     7     4   ar
    17     4     6   ar
    18    20     9    1
    19     5    18    1
