@<TRIPOS>MOLECULE
FXEUKVKGTKDDIQ-UWVGGRQHSA-M	11152519	-2044.3958946435862
 50 50 0 0 0
SMALL
MULLIKEN NwChem

@<TRIPOS>ATOM
      1 C          -3.3788   -2.3016    1.9895 C.ar    1  UNK1      -0.11000000000000032
      2 C           5.1345    1.4309    1.2466 C.3     1  UNK1      -0.2699999999999996
      3 C          -2.4315   -1.6432    1.2303 C.ar    1  UNK1      -0.17999999999999972
      4 C           3.8010    2.1256    1.5905 C.3     1  UNK1       -0.33000000000000007
      5 C          -4.6163   -2.8381   -0.0179 C.ar    1  UNK1      -0.16000000000000014
      6 CA         -0.8063    3.9830   -0.9270 C.3     2  GLY2       -0.2999999999999998
      7 C          -0.1151   -0.1241    0.1746 C.3     1  UNK1       -0.46999999999999975
      8 C          -4.4733   -2.9016    1.3573 C.ar    1  UNK1       0.28000000000000025
      9 C           4.9454   -0.0410    0.8429 C.3     1  UNK1       -0.08999999999999986
     10 C           1.0034    0.7075   -0.4776 C.3     1  UNK1       -0.009999999999999787
     11 C          -3.6551   -2.1725   -0.7745 C.ar    1  UNK1          0.25
     12 C          -2.5173   -1.5461   -0.1846 C.ar    1  UNK1       -0.08000000000000007
     13 C           2.7597    1.9811    0.4742 C.2     1  UNK1       0.5199999999999996
     14 C           0.1688    5.1456   -1.2210 C.2     2  GLY2       0.5800000000000001
     15 C           0.4250    1.9870   -1.0732 C.2     1  UNK1       0.4900000000000002
     16 C           6.2820   -0.7829    0.6831 C.2     1  UNK1       0.6200000000000001
     17 N           4.0592   -0.8415    1.7128 N.3     1  UNK1      -0.8200000000000003
     18 N          -0.2612    2.7765   -0.3459 N.2     2  GLY2      -0.46999999999999975
     19 N           1.9724    0.9280    0.5896 N.am    1  UNK1      -0.5599999999999996
     20 N          -5.4775   -3.6038    2.1511 N.pl3   1  UNK1       0.3899999999999997
     21 N          -3.8894   -2.1584   -2.2211 N.pl3   1  UNK1       0.41000000000000014
     22 O           2.7989    2.8385   -0.4674 O.2     1  UNK1      -0.6899999999999995
     23 O          -0.2787    6.2470   -1.4727 O.2     2  GLY2      -0.5299999999999994
     24 OXT         1.4742    4.8877   -1.2992 O.3     2  GLY2      -0.6400000000000006
     25 O           0.6931    2.1064   -2.4087 O.2     1  UNK1      -0.6400000000000006
     26 O           7.3112   -0.2684    0.3039 O.2     1  UNK1      -0.5399999999999991
     27 O           6.1875   -2.0928    0.9835 O.3     1  UNK1      -0.6199999999999992
     28 O          -5.3155   -3.6413    3.3741 O.2     1  UNK1      -0.4299999999999997
     29 O          -6.4280   -4.1197    1.5588 O.2     1  UNK1      -0.4299999999999997
     30 O          -4.9137   -2.6931   -2.6540 O.2     1  UNK1      -0.4299999999999997
     31 O          -3.0458   -1.6110   -2.9336 O.2     1  UNK1      -0.41999999999999993
     32 S          -1.2931   -0.7085   -1.1194 S.3     1  UNK1      0.23000000000000043
     33 H          -3.2860   -2.3602    3.0671 H       1  UNK1       0.20999999999999996
     34 H           5.6320    1.9518    0.4227 H       1  UNK1       0.15000000000000002
     35 H           5.8135    1.4882    2.1093 H       1  UNK1       0.15000000000000002
     36 H          -1.5979   -1.1861    1.7433 H       1  UNK1       0.20999999999999996
     37 H           3.9863    3.1933    1.7482 H       1  UNK1          0.14
     38 H           3.3975    1.7102    2.5207 H       1  UNK1          0.14
     39 H          -5.4620   -3.2978   -0.5094 H       1  UNK1       0.22999999999999998
     40 HA1        -1.3122    3.7928   -1.8906 H       2  GLY2       0.19999999999999996
     41 HA2        -1.5683    4.3943   -0.2592 H       2  GLY2       0.18999999999999995
     42 H           0.3331   -0.9815    0.6832 H       1  UNK1       0.20999999999999996
     43 H          -0.6289    0.5221    0.8907 H       1  UNK1       0.19999999999999996
     44 H           4.4741   -0.0592   -0.1486 H       1  UNK1       0.19999999999999996
     45 H           1.4535    0.1425   -1.3087 H       1  UNK1       0.16000000000000003
     46 H           3.0997   -0.5251    1.5012 H       1  UNK1          0.35
     47 H           4.2372   -0.5946    2.6877 H       1  UNK1       0.33999999999999997
     48 HXT         1.8280    4.0351   -0.8702 H       2  GLY2          0.47
     49 H           0.7386    3.0473   -2.6482 H       1  UNK1       0.43999999999999995
     50 H           5.2471   -2.1820    1.3045 H       1  UNK1       0.43999999999999995
@<TRIPOS>BOND
     1    31    21    2
     2    30    21    2
     3    49    25    1
     4    25    15    1
     5    21    11    1
     6    40     6    1
     7    23    14    2
     8    45    10    1
     9    24    14    1
    10    24    48    1
    11    14     6    1
    12    32    12    1
    13    32     7    1
    14    15    10    1
    15    15    18    2
    16     6    18    1
    17     6    41    1
    18    11    12   ar
    19    11     5   ar
    20    39     5    1
    21    10     7    1
    22    10    19    1
    23    22    13    2
    24    12     3   ar
    25    44     9    1
    26     5     8   ar
    27     7    42    1
    28     7    43    1
    29    26    16    2
    30    34     2    1
    31    13    19   am
    32    13     4    1
    33    16     9    1
    34    16    27    1
    35     9     2    1
    36     9    17    1
    37    27    50    1
    38     3    36    1
    39     3     1   ar
    40     2     4    1
    41     2    35    1
    42     8     1   ar
    43     8    20    1
    44    46    17    1
    45    29    20    2
    46     4    37    1
    47     4    38    1
    48    17    47    1
    49     1    33    1
    50    20    28    2
