@<TRIPOS>MOLECULE
FYGDTMLNYKFZSV-DZOUCCHMSA-N	6044539	-1908.194927067895
 66 68 0 0 0
SMALL
MULLIKEN NwChem

@<TRIPOS>ATOM
      1 C          -2.3716   -5.5014   -0.7484 C.3     1  LIG1       -0.04999999999999982
      2 C           1.9221    5.0261    3.0392 C.3     1  LIG1       -0.08000000000000007
      3 C          -2.0192    0.2572    1.8744 C.3     1  LIG1       -0.07000000000000028
      4 C          -2.9912   -4.3891   -1.6117 C.3     1  LIG1       0.07000000000000028
      5 C           1.3666    3.7756    2.2984 C.3     1  LIG1       0.08000000000000007
      6 C          -1.0172    0.6095    0.7550 C.3     1  LIG1       0.08000000000000007
      7 C          -2.6014   -4.3597   -3.1106 C.3     1  LIG1       0.09999999999999964
      8 C          -1.2522   -3.6678   -3.3799 C.3     1  LIG1       0.08000000000000007
      9 C           3.2670    2.7921    0.8245 C.3     1  LIG1       0.07000000000000028
     10 C           0.5205   -1.4444    0.5991 C.3     1  LIG1       0.04999999999999982
     11 C           2.4163    3.2353   -0.3860 C.3     1  LIG1       0.07000000000000028
     12 C          -1.1551   -2.3460   -2.6004 C.3     1  LIG1       0.08000000000000007
     13 C           1.6835   -0.5620    1.1164 C.3     1  LIG1       0.08999999999999986
     14 C           2.4660    2.6943    2.1630 C.3     1  LIG1       0.08000000000000007
     15 C          -0.5187   -0.5671   -0.1133 C.3     1  LIG1       0.1299999999999999
     16 C           1.5883    4.4746   -0.0278 C.3     1  LIG1       0.3099999999999996
     17 C          -1.5469   -2.5409   -1.1266 C.3     1  LIG1       0.33000000000000007
     18 C           1.0867    0.5597    1.9878 C.3     1  LIG1       0.33999999999999986
     19 O          -0.9742   -5.4194   -0.5172 O.3     1  LIG1      -0.6799999999999997
     20 O           1.2707    6.2329    2.6352 O.3     1  LIG1      -0.6600000000000001
     21 O          -3.3045   -0.0133    1.3473 O.3     1  LIG1      -0.6699999999999999
     22 O          -3.6101   -3.7137   -3.8713 O.3     1  LIG1      -0.6899999999999995
     23 O          -0.1974   -4.5653   -3.0131 O.3     1  LIG1      -0.6699999999999999
     24 O           4.3563    3.6934    0.9944 O.3     1  LIG1      -0.6899999999999995
     25 O          -0.1355   -2.1457    1.6497 O.3     1  LIG1      -0.6600000000000001
     26 O           1.5143    2.2252   -0.8393 O.3     1  LIG1      -0.7100000000000009
     27 O          -2.0533   -1.4203   -3.2077 O.3     1  LIG1      -0.6799999999999997
     28 O           2.5159   -0.1661    0.0496 O.3     1  LIG1      -0.6999999999999993
     29 O           2.4614    5.5552    0.2366 O.3     1  LIG1      -0.6799999999999997
     30 O           0.7342    4.1675    1.0622 O.3     1  LIG1      -0.5199999999999996
     31 O          -2.8386   -3.0867   -1.0162 O.3     1  LIG1      -0.5299999999999994
     32 O           0.1222    1.3367    1.2620 O.3     1  LIG1      -0.5600000000000005
     33 O           2.0372    1.3877    2.5862 O.3     1  LIG1      -0.5399999999999991
     34 O          -1.6978   -1.2662   -0.5199 O.3     1  LIG1      -0.5600000000000005
     35 H          -2.6525   -6.4703   -1.1985 H       1  LIG1       0.15000000000000002
     36 H          -2.8421   -5.4503    0.2380 H       1  LIG1       0.16000000000000003
     37 H           1.8256    4.8703    4.1222 H       1  LIG1       0.17000000000000004
     38 H           2.9827    5.1706    2.8187 H       1  LIG1       0.17000000000000004
     39 H          -1.6507   -0.5672    2.4943 H       1  LIG1       0.16000000000000003
     40 H          -2.1115    1.1498    2.5035 H       1  LIG1       0.16000000000000003
     41 H          -4.0733   -4.5584   -1.6038 H       1  LIG1       0.17000000000000004
     42 H           0.5400    3.3499    2.8718 H       1  LIG1       0.18999999999999995
     43 H          -1.5289    1.3242    0.1034 H       1  LIG1       0.18000000000000005
     44 H          -2.5390   -5.3904   -3.4763 H       1  LIG1       0.17000000000000004
     45 H          -1.2083   -3.4501   -4.4526 H       1  LIG1       0.17000000000000004
     46 H           3.6904    1.8048    0.6322 H       1  LIG1       0.17000000000000004
     47 H           0.9618   -2.1408   -0.1251 H       1  LIG1       0.17000000000000004
     48 H           3.0903    3.4677   -1.2136 H       1  LIG1       0.18000000000000005
     49 H          -0.1196   -1.9658   -2.6447 H       1  LIG1       0.17000000000000004
     50 H           2.3014   -1.1782    1.7815 H       1  LIG1       0.17000000000000004
     51 H           3.2250    2.9021    2.9211 H       1  LIG1       0.18999999999999995
     52 H          -0.0188   -0.1430   -0.9962 H       1  LIG1       0.18000000000000005
     53 H           0.8938    4.7144   -0.8427 H       1  LIG1       0.17000000000000004
     54 H          -0.8230   -3.1556   -0.5899 H       1  LIG1       0.18000000000000005
     55 H           0.5732    0.0645    2.8192 H       1  LIG1       0.17000000000000004
     56 H          -0.5272   -5.3693   -1.3848 H       1  LIG1       0.43999999999999995
     57 H           0.3523    6.0018    2.4172 H       1  LIG1       0.43999999999999995
     58 H          -3.2137   -0.8183    0.8106 H       1  LIG1       0.42000000000000004
     59 H          -3.5079   -2.7586   -3.7027 H       1  LIG1       0.42000000000000004
     60 H           0.6492   -4.1937   -3.3061 H       1  LIG1       0.44999999999999996
     61 H           4.0137    4.5892    0.8058 H       1  LIG1       0.43999999999999995
     62 H           0.3645   -2.9532    1.8454 H       1  LIG1       0.43999999999999995
     63 H           0.8244    2.1480   -0.1411 H       1  LIG1          0.47
     64 H          -2.3408   -0.8270   -2.4893 H       1  LIG1       0.43999999999999995
     65 H           2.1404    0.6226   -0.4037 H       1  LIG1       0.43999999999999995
     66 H           2.0166    6.1324    0.8982 H       1  LIG1       0.44999999999999996
@<TRIPOS>BOND
     1    45     8    1
     2    22    59    1
     3    22     7    1
     4    44     7    1
     5     8     7    1
     6     8    23    1
     7     8    12    1
     8    60    23    1
     9    27    12    1
    10    27    64    1
    11     7     4    1
    12    49    12    1
    13    12    17    1
    14     4    41    1
    15     4    31    1
    16     4     1    1
    17    56    19    1
    18    48    11    1
    19    35     1    1
    20    17    31    1
    21    17    54    1
    22    17    34    1
    23    52    15    1
    24    53    16    1
    25    26    11    1
    26    26    63    1
    27     1    19    1
    28     1    36    1
    29    34    15    1
    30    65    28    1
    31    11    16    1
    32    11     9    1
    33    47    10    1
    34    15    10    1
    35    15     6    1
    36    16    29    1
    37    16    30    1
    38    28    13    1
    39    43     6    1
    40    29    66    1
    41    10    13    1
    42    10    25    1
    43    46     9    1
    44     6    32    1
    45     6     3    1
    46    61    24    1
    47    58    21    1
    48     9    24    1
    49     9    14    1
    50    30     5    1
    51    13    50    1
    52    13    18    1
    53    32    18    1
    54    21     3    1
    55    25    62    1
    56     3    39    1
    57     3    40    1
    58    18    33    1
    59    18    55    1
    60    14     5    1
    61    14    33    1
    62    14    51    1
    63     5    42    1
    64     5     2    1
    65    57    20    1
    66    20     2    1
    67    38     2    1
    68     2    37    1
