@<TRIPOS>MOLECULE
FYHRVINOXYETMN-QGBOJXOESA-N	6044540	-1209.816900778585
 80 83 0 0 0
SMALL
MULLIKEN NwChem

@<TRIPOS>ATOM
      1 C          -6.4202    2.0794    0.0505 C.3     1  LIG1      -0.45999999999999996
      2 C          -5.8192   -0.1226    1.1269 C.3     1  LIG1      -0.45999999999999996
      3 C          -3.3025   -0.8392   -4.5090 C.3     1  LIG1      -0.4800000000000004
      4 C           4.4311    1.6481    3.5379 C.3     1  LIG1      -0.46999999999999975
      5 C           5.6971   -0.2016    2.4767 C.3     1  LIG1      -0.4800000000000004
      6 C          -1.8747   -0.2022   -0.2739 C.3     1  LIG1         -0.5
      7 C           3.8043   -1.8568    0.3516 C.3     1  LIG1      -0.4800000000000004
      8 C          -5.3196    0.8121   -2.6606 C.3     1  LIG1      -0.28000000000000025
      9 C          -5.7704    0.0717   -1.3886 C.3     1  LIG1      -0.2599999999999998
     10 C          -3.7962    0.9842   -2.8239 C.3     1  LIG1      -0.28000000000000025
     11 C           2.3426    1.5687   -0.2183 C.3     1  LIG1      -0.34999999999999964
     12 C          -0.8071    1.0591   -3.4584 C.3     1  LIG1      -0.29000000000000004
     13 C           0.5728    1.0674   -2.7932 C.3     1  LIG1      -0.29000000000000004
     14 C           3.5979    1.2496    0.5989 C.3     1  LIG1      -0.29000000000000004
     15 C           0.6151   -1.9417   -0.0552 C.3     1  LIG1      -0.3600000000000003
     16 C           3.3176   -2.0792    3.4611 C.3     1  LIG1      -0.29000000000000004
     17 C          -0.2041   -1.7607   -1.3316 C.3     1  LIG1      -0.29000000000000004
     18 C           2.2637   -1.9429    2.3531 C.3     1  LIG1      -0.3099999999999996
     19 C          -5.5513    0.8177   -0.0569 C.3     1  LIG1      -0.07000000000000028
     20 C          -3.0121   -0.3227   -3.0865 C.3     1  LIG1      -0.07000000000000028
     21 C           1.4084    0.3938   -0.4260 C.2     1  LIG1      0.08999999999999986
     22 C          -1.4769   -0.2088   -2.8852 C.3     1  LIG1      -0.11000000000000032
     23 C           0.2313    0.7153   -1.3273 C.3     1  LIG1      -0.17999999999999972
     24 C           1.5713   -0.7901    0.1965 C.2     1  LIG1      0.07000000000000028
     25 C           3.2409    0.2974    1.7462 C.3     1  LIG1      -0.1200000000000001
     26 C           3.7515   -0.7172    4.0164 C.3     1  LIG1       0.1299999999999999
     27 C           4.2843    0.2427    2.9106 C.3     1  LIG1      0.08000000000000007
     28 C          -0.8763   -0.3764   -1.4279 C.3     1  LIG1      0.11000000000000032
     29 C           2.7421   -1.0687    1.1624 C.3     1  LIG1      0.04999999999999982
     30 O           2.6878   -0.1323    4.7793 O.3     1  LIG1      -0.6899999999999995
     31 H          -7.4859    1.8227   -0.0159 H       1  LIG1          0.14
     32 H          -6.2007    2.8005   -0.7444 H       1  LIG1       0.15000000000000002
     33 H          -6.2589    2.5862    1.0094 H       1  LIG1          0.14
     34 H          -6.8568   -0.4817    1.1122 H       1  LIG1          0.14
     35 H          -5.1618   -1.0000    1.0941 H       1  LIG1       0.15000000000000002
     36 H          -5.6562    0.3848    2.0852 H       1  LIG1          0.14
     37 H          -2.9101   -0.1444   -5.2624 H       1  LIG1          0.14
     38 H          -2.8328   -1.8152   -4.6786 H       1  LIG1          0.14
     39 H          -4.3758   -0.9544   -4.6929 H       1  LIG1       0.15000000000000002
     40 H           3.4605    2.0981    3.7634 H       1  LIG1          0.14
     41 H           4.9836    1.5797    4.4820 H       1  LIG1          0.14
     42 H           4.9849    2.3254    2.8798 H       1  LIG1       0.15000000000000002
     43 H           6.4027   -0.0464    3.3018 H       1  LIG1          0.14
     44 H           5.7583   -1.2530    2.1919 H       1  LIG1       0.15000000000000002
     45 H           6.0509    0.3929    1.6276 H       1  LIG1       0.15000000000000002
     46 H          -2.3732    0.7688   -0.3218 H       1  LIG1       0.16000000000000003
     47 H          -2.6476   -0.9793   -0.2694 H       1  LIG1       0.15000000000000002
     48 H          -1.3540   -0.2433    0.6888 H       1  LIG1       0.15000000000000002
     49 H           4.2752   -1.2330   -0.4125 H       1  LIG1       0.15000000000000002
     50 H           4.5934   -2.2788    0.9766 H       1  LIG1       0.15000000000000002
     51 H           3.3275   -2.6955   -0.1672 H       1  LIG1       0.15000000000000002
     52 H          -5.7193    0.2790   -3.5324 H       1  LIG1          0.13
     53 H          -5.7870    1.8047   -2.6882 H       1  LIG1          0.13
     54 H          -5.2607   -0.9002   -1.3369 H       1  LIG1          0.14
     55 H          -6.8424   -0.1601   -1.4762 H       1  LIG1          0.12
     56 H          -3.6173    1.6676   -3.6653 H       1  LIG1          0.13
     57 H          -3.3969    1.4963   -1.9420 H       1  LIG1          0.14
     58 H           1.7744    2.3687    0.2846 H       1  LIG1          0.14
     59 H           2.6290    1.9892   -1.1914 H       1  LIG1       0.15000000000000002
     60 H          -1.3523    1.9626   -3.1584 H       1  LIG1          0.14
     61 H          -0.7646    1.0545   -4.5533 H       1  LIG1          0.13
     62 H           1.0923    2.0255   -2.8954 H       1  LIG1          0.14
     63 H           1.2190    0.2922   -3.2266 H       1  LIG1          0.13
     64 H           4.0281    2.1824    0.9752 H       1  LIG1          0.14
     65 H           4.3611    0.7984   -0.0445 H       1  LIG1          0.14
     66 H          -0.0482   -2.0748    0.8114 H       1  LIG1       0.15000000000000002
     67 H           1.1744   -2.8833   -0.1301 H       1  LIG1       0.15000000000000002
     68 H           2.9102   -2.6706    4.2889 H       1  LIG1          0.14
     69 H           4.1912   -2.6246    3.0864 H       1  LIG1       0.15000000000000002
     70 H          -0.9642   -2.5499   -1.4155 H       1  LIG1          0.13
     71 H           0.4711   -1.8823   -2.1892 H       1  LIG1          0.13
     72 H           1.9761   -2.9415    2.0077 H       1  LIG1       0.15000000000000002
     73 H           1.3497   -1.4995    2.7756 H       1  LIG1          0.14
     74 H          -4.4995    1.1273   -0.0004 H       1  LIG1          0.13
     75 H          -3.3718   -1.0895   -2.3877 H       1  LIG1          0.13
     76 H          -1.0554   -1.0461   -3.4579 H       1  LIG1          0.12
     77 H          -0.2402    1.6207   -0.9073 H       1  LIG1          0.13
     78 H           2.3373    0.7301    2.2106 H       1  LIG1       0.10999999999999999
     79 H           4.5497   -0.8622    4.7545 H       1  LIG1          0.13
     80 H           1.9436    0.0291    4.1795 H       1  LIG1       0.42000000000000004
@<TRIPOS>BOND
     1    37     3    1
     2    39     3    1
     3    38     3    1
     4    61    12    1
     5     3    20    1
     6    56    10    1
     7    52     8    1
     8    12    60    1
     9    12    22    1
    10    12    13    1
    11    76    22    1
    12    63    13    1
    13    20    22    1
    14    20    10    1
    15    20    75    1
    16    62    13    1
    17    22    28    1
    18    10     8    1
    19    10    57    1
    20    13    23    1
    21    53     8    1
    22     8     9    1
    23    71    17    1
    24    55     9    1
    25    28    17    1
    26    28    23    1
    27    28     6    1
    28    70    17    1
    29     9    54    1
    30     9    19    1
    31    17    15    1
    32    23    77    1
    33    23    21    1
    34    59    11    1
    35    32     1    1
    36    21    11    1
    37    21    24    2
    38    49     7    1
    39    46     6    1
    40     6    47    1
    41     6    48    1
    42    11    58    1
    43    11    14    1
    44    51     7    1
    45    67    15    1
    46    19    74    1
    47    19     1    1
    48    19     2    1
    49    15    24    1
    50    15    66    1
    51    65    14    1
    52    31     1    1
    53     1    33    1
    54    24    29    1
    55     7    50    1
    56     7    29    1
    57    14    64    1
    58    14    25    1
    59    35     2    1
    60    34     2    1
    61     2    36    1
    62    29    25    1
    63    29    18    1
    64    45     5    1
    65    25    78    1
    66    25    27    1
    67    72    18    1
    68    44     5    1
    69    18    73    1
    70    18    16    1
    71     5    27    1
    72     5    43    1
    73    42     4    1
    74    27     4    1
    75    27    26    1
    76    69    16    1
    77    16    26    1
    78    16    68    1
    79     4    40    1
    80     4    41    1
    81    26    79    1
    82    26    30    1
    83    80    30    1
