@<TRIPOS>MOLECULE
FZLJPEPAYPUMMR-JAJWTYFOSA-L	6044543	-1386.5357971221529
 33 33 0 0 0
SMALL
MULLIKEN NwChem

@<TRIPOS>ATOM
      1 C          -0.2410   -0.1521   -3.4340 C.3     1  LIG1       -0.5499999999999998
      2 C           0.5596    1.1862    3.0382 C.3     1  LIG1       -0.08000000000000007
      3 C           0.0906    1.3193   -3.0196 C.2     1  LIG1       0.45999999999999996
      4 C           0.8223    1.8225    1.6556 C.3     1  LIG1       0.08000000000000007
      5 C          -0.5919    0.8363   -0.7637 C.3     1  LIG1       0.009999999999999787
      6 C          -0.3367    2.6344    1.0008 C.3     1  LIG1       0.11000000000000032
      7 C          -1.3450    1.7556    0.2497 C.3     1  LIG1       0.08000000000000007
      8 C           0.3622    0.0315    0.1381 C.3     1  LIG1       0.34999999999999964
      9 N          -0.0332    1.7089   -1.7551 N.am    1  LIG1      -0.6100000000000003
     10 O          -0.3779    0.1114    3.0833 O.3     1  LIG1      -0.6999999999999993
     11 O           0.4939    2.0640   -3.9538 O.2     1  LIG1      -0.7100000000000009
     12 O          -1.0107    3.4501    1.9720 O.3     1  LIG1      -0.6899999999999995
     13 O          -2.2116    1.0982    1.2048 O.3     1  LIG1      -0.7300000000000004
     14 O           0.8109   -2.0353    1.9358 O.3     1  LIG1      -0.7100000000000009
     15 O           0.6766   -3.5098   -0.1826 O.3     1  LIG1      -0.7200000000000006
     16 O           2.9511   -2.5884    0.4901 O.2     1  LIG1      -0.6600000000000001
     17 O           1.3591    0.8746    0.7458 O.3     1  LIG1      -0.5299999999999994
     18 O           1.0408   -1.0369   -0.4564 O.3     1  LIG1      -0.6199999999999992
     19 P           1.4946   -2.2779    0.5935 P.3     1  LIG1          1.08
     20 H           0.5021   -0.8408   -3.0019 H       1  LIG1       0.15000000000000002
     21 H          -0.2203   -0.1977   -4.5270 H       1  LIG1          0.13
     22 H          -1.2345   -0.5013   -3.0854 H       1  LIG1       0.15000000000000002
     23 H           1.5326    0.8286    3.4107 H       1  LIG1       0.15000000000000002
     24 H           0.1957    1.9695    3.7192 H       1  LIG1       0.15000000000000002
     25 H           1.6380    2.5401    1.8390 H       1  LIG1       0.15000000000000002
     26 H          -1.3364    0.0978   -1.1230 H       1  LIG1       0.10999999999999999
     27 H           0.1144    3.2821    0.2472 H       1  LIG1          0.13
     28 H          -2.0057    2.4108   -0.3315 H       1  LIG1          0.13
     29 H          -0.2658   -0.3848    0.9185 H       1  LIG1       0.08999999999999997
     30 H           0.0855   -0.6940    2.7035 H       1  LIG1       0.45999999999999996
     31 H          -1.7633    2.8862    2.2360 H       1  LIG1       0.41000000000000003
     32 H          -1.6459    0.6001    1.8420 H       1  LIG1       0.43999999999999995
     33 H          -0.2395   -3.2103   -0.2727 H       1  LIG1       0.43999999999999995
@<TRIPOS>BOND
     1    21     1    1
     2    11     3    2
     3     1    22    1
     4     1     3    1
     5     1    20    1
     6     3     9   am
     7     9     5    1
     8    26     5    1
     9     5     8    1
    10     5     7    1
    11    18     8    1
    12    18    19    1
    13    28     7    1
    14    33    15    1
    15    15    19    1
    16     8    17    1
    17     8    29    1
    18    27     6    1
    19     7     6    1
    20     7    13    1
    21    16    19    2
    22    19    14    1
    23    17     4    1
    24     6     4    1
    25     6    12    1
    26    13    32    1
    27     4    25    1
    28     4     2    1
    29    12    31    1
    30    30    10    1
    31     2    10    1
    32     2    23    1
    33     2    24    1
