@<TRIPOS>MOLECULE
FZLJPEPAYPUMMR-FMDGEEDCSA-L	11115252	-1386.5572596791892
 33 33 0 0 0
SMALL
MULLIKEN NwChem

@<TRIPOS>ATOM
      1 C           4.1943   -1.9904   -1.5856 C.3     1  LIG1       -0.5099999999999998
      2 C          -2.6249    0.2414    2.1053 C.3     1  LIG1       -0.009999999999999787
      3 C           3.0008   -1.9442   -0.6251 C.2     1  LIG1           0.5
      4 C          -1.5574   -0.1253    1.0877 C.3     1  LIG1       0.04999999999999982
      5 C           1.1365   -0.8125    0.2010 C.3     1  LIG1       -0.019999999999999574
      6 C          -1.0596   -1.5634    1.1782 C.3     1  LIG1       0.13999999999999968
      7 C          -0.0242   -1.8195    0.0740 C.3     1  LIG1       0.1200000000000001
      8 C           0.5466    0.6168    0.2030 C.3     1  LIG1       0.3099999999999996
      9 N           2.1923   -0.9285   -0.7906 N.am    1  LIG1      -0.5899999999999999
     10 O          -3.2445    1.5005    1.8623 O.3     1  LIG1      -0.7100000000000009
     11 O           2.9458   -2.9114    0.2296 O.2     1  LIG1      -0.7200000000000006
     12 O          -2.1319   -2.5048    1.0563 O.3     1  LIG1      -0.6999999999999993
     13 O           0.3567   -3.1882    0.1725 O.3     1  LIG1        -0.75
     14 O           0.7314    3.4105   -0.8912 O.3     1  LIG1      -0.6999999999999993
     15 O          -1.6259    2.7880   -0.0774 O.3     1  LIG1        -0.75
     16 O          -1.1580    2.6326   -2.6014 O.2     1  LIG1      -0.6699999999999999
     17 O          -0.4198    0.7280    1.2914 O.3     1  LIG1      -0.5500000000000007
     18 O          -0.0648    0.9462   -1.0106 O.3     1  LIG1      -0.5899999999999999
     19 P          -0.4534    2.5738   -1.2858 P.3     1  LIG1       1.0899999999999999
     20 H           4.1744   -2.9266   -2.1621 H       1  LIG1       0.15000000000000002
     21 H           5.1305   -1.9977   -1.0085 H       1  LIG1       0.15000000000000002
     22 H           4.1915   -1.1370   -2.2699 H       1  LIG1          0.14
     23 H          -3.3831   -0.5565    2.0939 H       1  LIG1          0.14
     24 H          -2.1678    0.2534    3.1085 H       1  LIG1          0.14
     25 H          -1.9705    0.0432    0.0847 H       1  LIG1       0.15000000000000002
     26 H           1.5470   -0.9529    1.2201 H       1  LIG1          0.12
     27 H          -0.5584   -1.6953    2.1538 H       1  LIG1          0.12
     28 H          -0.5174   -1.6577   -0.8973 H       1  LIG1          0.12
     29 H           1.3197    1.3492    0.4541 H       1  LIG1       0.15000000000000002
     30 H          -2.8978    1.8521    1.0156 H       1  LIG1       0.43000000000000005
     31 H          -1.6503   -3.3105    0.7863 H       1  LIG1       0.42000000000000004
     32 H           1.3603   -3.1955    0.3050 H       1  LIG1       0.42000000000000004
     33 H          -1.1450    2.6138    0.7530 H       1  LIG1       0.43000000000000005
@<TRIPOS>BOND
     1    16    19    2
     2    22     1    1
     3    20     1    1
     4     1    21    1
     5     1     3    1
     6    19    18    1
     7    19    14    1
     8    19    15    1
     9    18     8    1
    10    28     7    1
    11     9     3   am
    12     9     5    1
    13     3    11    2
    14    15    33    1
    15     7    13    1
    16     7     5    1
    17     7     6    1
    18    25     4    1
    19    13    32    1
    20     5     8    1
    21     5    26    1
    22     8    29    1
    23     8    17    1
    24    31    12    1
    25    30    10    1
    26    12     6    1
    27     4     6    1
    28     4    17    1
    29     4     2    1
    30     6    27    1
    31    10     2    1
    32    23     2    1
    33     2    24    1
