@<TRIPOS>MOLECULE
GACDQMDRPRGCTN-KQYNXXCUSA-J	11115241	-2720.752023131515
 42 44 0 0 0
SMALL
MULLIKEN NwChem

@<TRIPOS>ATOM
      1 C          -1.6350   -0.2997   -0.4429 C.3     1  LIG1       -0.04999999999999982
      2 C           5.7492    0.0539   -0.8967 C.ar    1  LIG1       0.15000000000000036
      3 C           1.8526   -0.7817    0.8708 C.ar    1  LIG1       0.16999999999999993
      4 C          -0.7847    0.7922   -1.0776 C.3     1  LIG1       0.11000000000000032
      5 C           3.9328   -1.1685    0.6087 C.ar    1  LIG1       0.20000000000000018
      6 C           1.3348    1.1281   -2.2116 C.3     1  LIG1       0.05999999999999961
      7 C          -0.0111    0.3400   -2.3436 C.3     1  LIG1       0.15000000000000036
      8 C           5.2531   -1.6242    0.5851 C.ar    1  LIG1       0.41999999999999993
      9 C           3.6340   -0.0648   -0.2198 C.ar    1  LIG1       0.5499999999999998
     10 C           1.4796    1.2584   -0.6869 C.3     1  LIG1       0.2699999999999996
     11 N           5.6524   -2.7083    1.3764 N.pl3   1  LIG1      -0.7800000000000002
     12 N           6.1729   -1.0138   -0.1810 N.ar    1  LIG1        -0.54
     13 N           4.5345    0.5911   -0.9755 N.ar    1  LIG1      -0.5499999999999998
     14 N           2.8144   -1.6039    1.2796 N.ar    1  LIG1      -0.5999999999999996
     15 N           2.2936    0.1563   -0.0505 N.ar    1  LIG1      -0.5300000000000002
     16 O           1.2549    2.4266   -2.7272 O.3     1  LIG1        -0.75
     17 O           0.9083   -0.8292   -4.9091 O.3     1  LIG1      -0.7799999999999994
     18 O          -1.1478    0.3518   -6.0286 O.2     1  LIG1        -0.75
     19 O           0.8475    1.7570   -5.1438 O.3     1  LIG1      -0.8000000000000007
     20 O          -3.3195   -1.9533    1.8997 O.2     1  LIG1      -0.6799999999999997
     21 O          -0.8304   -1.2292    2.2984 O.3     1  LIG1      -0.6799999999999997
     22 O          -3.5147   -0.9611    5.2152 O.3     1  LIG1      -0.6300000000000008
     23 O          -5.2089    0.1907    3.7920 O.2     1  LIG1      -0.6199999999999992
     24 O          -3.5752    1.5213    5.1046 O.2     1  LIG1      -0.6300000000000008
     25 O          -2.3203    0.1553    0.7201 O.3     1  LIG1      -0.5899999999999999
     26 O           0.2165    1.2423   -0.1122 O.3     1  LIG1      -0.5299999999999994
     27 O          -0.7564    0.6014   -3.4899 O.3     1  LIG1      -0.6699999999999999
     28 O          -2.7455    0.3135    3.1461 O.3     1  LIG1      -0.6500000000000004
     29 P           0.0359    0.4168   -5.0710 P.3     1  LIG1       0.9900000000000002
     30 P          -2.2834   -0.8776    2.0494 P.3     1  LIG1       1.0600000000000005
     31 S          -3.8585    0.2363    4.4063 S.3     1  LIG1       1.1999999999999993
     32 H          -2.3577   -0.6302   -1.2056 H       1  LIG1       0.16000000000000003
     33 H          -0.9856   -1.1515   -0.2047 H       1  LIG1       0.16000000000000003
     34 H           6.5202    0.5373   -1.4990 H       1  LIG1       0.16000000000000003
     35 H           0.8206   -0.8042    1.2431 H       1  LIG1          0.25
     36 H          -1.3980    1.6627   -1.3321 H       1  LIG1       0.15000000000000002
     37 H           2.1542    0.5476   -2.6618 H       1  LIG1          0.14
     38 H           0.2348   -0.7360   -2.2596 H       1  LIG1          0.12
     39 H           2.0070    2.1870   -0.4381 H       1  LIG1       0.18000000000000005
     40 H           6.3881   -3.2464    0.9313 H       1  LIG1          0.36
     41 H           4.8527   -3.2777    1.6376 H       1  LIG1          0.36
     42 H           1.0572    2.2560   -3.7478 H       1  LIG1       0.43000000000000005
@<TRIPOS>BOND
     1    18    29    2
     2    19    29    1
     3    29    17    1
     4    29    27    1
     5    42    16    1
     6    27     7    1
     7    16     6    1
     8    37     6    1
     9     7    38    1
    10     7     6    1
    11     7     4    1
    12     6    10    1
    13    34     2    1
    14    36     4    1
    15    32     1    1
    16     4     1    1
    17     4    26    1
    18    13     2   ar
    19    13     9   ar
    20     2    12   ar
    21    10    39    1
    22    10    26    1
    23    10    15    1
    24     1    33    1
    25     1    25    1
    26     9    15   ar
    27     9     5   ar
    28    12     8   ar
    29    15     3   ar
    30     8     5   ar
    31     8    11    1
    32     5    14   ar
    33    25    30    1
    34     3    35    1
    35     3    14   ar
    36    40    11    1
    37    11    41    1
    38    20    30    2
    39    30    21    1
    40    30    28    1
    41    28    31    1
    42    23    31    2
    43    31    24    2
    44    31    22    1
