@<TRIPOS>MOLECULE
GEJXSVNGWOSZPC-UHFFFAOYSA-M	6044549	-438.69378372478366
 17 17 0 0 0
SMALL
MULLIKEN NwChem

@<TRIPOS>ATOM
      1 CG          1.4031    1.6267    0.3043 C.3     1  LYS1      -0.2699999999999996
      2 CD          2.3337    0.5908   -0.3310 C.3     1  LYS1      -0.28000000000000025
      3 CB         -0.0406    1.2991   -0.0874 C.3     1  LYS1      -0.3200000000000003
      4 CE          1.9225   -0.8091    0.1515 C.3     1  LYS1       -0.15000000000000036
      5 CA         -0.3715   -0.1891    0.0087 C.2     1  LYS1       0.20999999999999996
      6 C          -1.9114   -0.5248   -0.0459 C.2     1  LYS1       0.4900000000000002
      7 N           0.4942   -1.1271    0.1247 N.2     1  LYS1         -0.5
      8 OXT        -2.6402    0.5063   -0.0170 O.co2   1  LYS1      -0.6699999999999999
      9 O          -2.2218   -1.7301   -0.1184 O.co2   1  LYS1      -0.6600000000000001
     10 HG1         1.5113    1.5780    1.3989 H       1  LYS1          0.14
     11 HG2         1.6748    2.6498    0.0066 H       1  LYS1          0.14
     12 HD1         2.2356    0.6435   -1.4256 H       1  LYS1          0.14
     13 HD2         3.3905    0.7827   -0.0922 H       1  LYS1          0.14
     14 HB1        -0.7822    1.8305    0.5143 H       1  LYS1       0.15000000000000002
     15 HB2        -0.2401    1.6191   -1.1212 H       1  LYS1       0.15000000000000002
     16 HE1         2.4424   -1.5764   -0.4424 H       1  LYS1          0.14
     17 HE2         2.2751   -0.9516    1.1876 H       1  LYS1       0.15000000000000002
@<TRIPOS>BOND
     1    12     2    1
     2    15     3    1
     3    16     4    1
     4     2    13    1
     5     2     4    1
     6     2     1    1
     7     9     6   ar
     8     3     5    1
     9     3     1    1
    10     3    14    1
    11     6     8   ar
    12     6     5    1
    13    11     1    1
    14     5     7    2
    15     7     4    1
    16     4    17    1
    17     1    10    1
