@<TRIPOS>MOLECULE
GELKGHVAFRCJNA-UHFFFAOYSA-N	6044550	-232.3496318729691
 13 13 0 0 0
SMALL
MULLIKEN NwChem

@<TRIPOS>ATOM
      1 C           0.6816   -0.5702   -1.3181 C.3     1  LIG1      -0.4800000000000004
      2 C          -1.3257   -0.8532    0.2567 C.3     1  LIG1      -0.4900000000000002
      3 C           0.0949    1.3029    0.3621 C.3     1  LIG1       -0.15000000000000036
      4 C          -0.0663   -0.0882   -0.0928 C.3     1  LIG1       0.33000000000000007
      5 O           0.7737    0.2320    1.0352 O.3     1  LIG1      -0.5199999999999996
      6 H           0.0551   -0.4880   -2.2143 H       1  LIG1       0.17000000000000004
      7 H           0.9658   -1.6227   -1.2000 H       1  LIG1       0.16000000000000003
      8 H           1.5932    0.0150   -1.4710 H       1  LIG1       0.16000000000000003
      9 H          -2.0593   -0.7876   -0.5557 H       1  LIG1       0.17000000000000004
     10 H          -1.0940   -1.9129    0.4177 H       1  LIG1       0.16000000000000003
     11 H          -1.7777   -0.4594    1.1718 H       1  LIG1       0.16000000000000003
     12 H           0.7361    1.9867   -0.1972 H       1  LIG1       0.17000000000000004
     13 H          -0.7021    1.7846    0.9314 H       1  LIG1       0.17000000000000004
@<TRIPOS>BOND
     1     6     1    1
     2     8     1    1
     3     1     7    1
     4     1     4    1
     5     9     2    1
     6    12     3    1
     7     4     2    1
     8     4     3    1
     9     4     5    1
    10     2    10    1
    11     2    11    1
    12     3    13    1
    13     3     5    1
