@<TRIPOS>MOLECULE
GFFGJBXGBJISGV-UHFFFAOYSA-N	6044551	-467.2442230052458
 15 16 0 0 0
SMALL
MULLIKEN NwChem

@<TRIPOS>ATOM
      1 C           2.4171    0.3631   -0.0114 C.ar    1  LIG1       0.1299999999999999
      2 C          -1.9077    0.8876   -0.0088 C.ar    1  LIG1          0.25
      3 C           0.4650   -0.4108    0.0065 C.ar    1  LIG1       0.20999999999999996
      4 C          -0.7469   -1.1083    0.0107 C.ar    1  LIG1       0.46999999999999975
      5 C           0.4375    1.0064   -0.0067 C.ar    1  LIG1       0.4900000000000002
      6 N          -0.8108   -2.4552    0.0351 N.pl3   1  LIG1      -0.7699999999999996
      7 N           1.7747   -0.8106    0.0024 N.ar    1  LIG1      -0.5800000000000001
      8 N          -1.9328   -0.4220    0.0012 N.ar    1  LIG1        -0.54
      9 N           1.6653    1.5153   -0.0177 N.ar    1  LIG1      -0.5599999999999996
     10 N          -0.7810    1.6440   -0.0118 N.ar    1  LIG1      -0.6399999999999997
     11 H           3.5001    0.4190   -0.0185 H       1  LIG1       0.15000000000000002
     12 H          -2.8481    1.4310   -0.0159 H       1  LIG1       0.21999999999999997
     13 H           0.0438   -2.9872   -0.0365 H       1  LIG1          0.39
     14 H          -1.7035   -2.9148   -0.0592 H       1  LIG1          0.38
     15 H          -0.8270    2.6567   -0.0239 H       1  LIG1            0.4
@<TRIPOS>BOND
     1    14     6    1
     2    13     6    1
     3    15    10    1
     4    11     1    1
     5     9     1   ar
     6     9     5   ar
     7    12     2    1
     8    10     2   ar
     9    10     5   ar
    10     1     7   ar
    11     2     8   ar
    12     5     3   ar
    13     8     4   ar
    14     7     3   ar
    15     3     4   ar
    16     4     6    1
