@<TRIPOS>MOLECULE
GFFYHZLIDINABP-UHFFFAOYSA-N	6044552	-1407.6826215816977
 98 97 0 0 0
SMALL
MULLIKEN NwChem

@<TRIPOS>ATOM
      1 C           7.5766    8.2470    9.3395 C.3     1  LIG1      -0.45999999999999996
      2 C          -8.9891   -6.8933   -8.3730 C.3     1  LIG1      -0.45999999999999996
      3 C           7.9606    7.5531    8.0278 C.3     1  LIG1      -0.2599999999999998
      4 C          -8.5623   -7.2055   -6.9346 C.3     1  LIG1        -0.25
      5 C           7.6406    6.0494    8.0033 C.3     1  LIG1      -0.2599999999999998
      6 C          -7.0882   -7.6223   -6.7967 C.3     1  LIG1      -0.2599999999999998
      7 C           6.1541    5.6908    8.1844 C.3     1  LIG1      -0.2699999999999996
      8 C          -6.0623   -6.5810   -7.2797 C.3     1  LIG1      -0.2699999999999996
      9 C           5.1991    6.3412    7.1677 C.3     1  LIG1      -0.2699999999999996
     10 C          -6.1780   -5.1953   -6.6196 C.3     1  LIG1      -0.2699999999999996
     11 C           5.5305    6.0621    5.6914 C.3     1  LIG1      -0.2699999999999996
     12 C          -6.1146   -5.1982   -5.0826 C.3     1  LIG1      -0.2699999999999996
     13 C           5.5886    4.5733    5.3080 C.3     1  LIG1      -0.2699999999999996
     14 C          -4.8427   -5.8217   -4.4824 C.3     1  LIG1      -0.2699999999999996
     15 C           4.3034    3.7760    5.5909 C.3     1  LIG1      -0.2699999999999996
     16 C           3.0344    4.3187    4.9097 C.3     1  LIG1      -0.2699999999999996
     17 C           3.1252    4.4595    3.3797 C.3     1  LIG1      -0.2699999999999996
     18 C           3.5187    3.1741    2.6310 C.3     1  LIG1      -0.2699999999999996
     19 C           2.5950    1.9682    2.8728 C.3     1  LIG1      -0.2699999999999996
     20 C           1.1232    2.1839    2.4796 C.3     1  LIG1      -0.2699999999999996
     21 C           0.8943    2.5865    1.0117 C.3     1  LIG1      -0.2699999999999996
     22 C           1.5059    1.6305   -0.0284 C.3     1  LIG1      -0.2699999999999996
     23 C          -3.5241   -5.1493   -4.9043 C.3     1  LIG1      -0.2699999999999996
     24 C           1.0595    0.1636    0.0928 C.3     1  LIG1      -0.2699999999999996
     25 C          -3.4264   -3.6447   -4.5961 C.3     1  LIG1      -0.28000000000000025
     26 C          -0.4557   -0.0742   -0.0128 C.3     1  LIG1      -0.2699999999999996
     27 C          -3.6836   -3.2597   -3.1280 C.3     1  LIG1      -0.28000000000000025
     28 C          -1.1126    0.4380   -1.3085 C.3     1  LIG1      -0.2699999999999996
     29 C          -2.7947   -3.9677   -2.0933 C.3     1  LIG1      -0.28000000000000025
     30 C          -0.4882   -0.0369   -2.6308 C.3     1  LIG1       -0.3799999999999999
     31 C          -1.3045   -3.6762   -2.2368 C.3     1  LIG1       -0.07000000000000028
     32 C          -0.6626   -1.4933   -3.0290 C.2     1  LIG1       0.6399999999999997
     33 O          -0.4480   -1.9042   -4.1508 O.2     1  LIG1      -0.5299999999999994
     34 O          -1.0649   -2.2679   -1.9976 O.3     1  LIG1      -0.46000000000000085
     35 H           6.4930    8.2299    9.5030 H       1  LIG1       0.15000000000000002
     36 H           7.8940    9.2962    9.3415 H       1  LIG1          0.14
     37 H           8.0491    7.7522   10.1977 H       1  LIG1          0.14
     38 H          -8.7829   -7.7415   -9.0379 H       1  LIG1          0.14
     39 H         -10.0619   -6.6768   -8.4303 H       1  LIG1          0.14
     40 H          -8.4553   -6.0234   -8.7719 H       1  LIG1       0.15000000000000002
     41 H           7.4560    8.0532    7.1902 H       1  LIG1          0.14
     42 H           9.0371    7.6842    7.8521 H       1  LIG1          0.13
     43 H          -9.1911   -8.0145   -6.5384 H       1  LIG1          0.13
     44 H          -8.7610   -6.3316   -6.2994 H       1  LIG1          0.14
     45 H           8.0029    5.6263    7.0565 H       1  LIG1          0.14
     46 H           8.2183    5.5518    8.7956 H       1  LIG1          0.13
     47 H          -6.9295   -8.5535   -7.3593 H       1  LIG1          0.13
     48 H          -6.8886   -7.8684   -5.7453 H       1  LIG1          0.14
     49 H           6.0533    4.5983    8.1332 H       1  LIG1          0.14
     50 H           5.8292    5.9715    9.1948 H       1  LIG1          0.13
     51 H          -6.1512   -6.4567   -8.3670 H       1  LIG1          0.13
     52 H          -5.0546   -6.9832   -7.1092 H       1  LIG1          0.14
     53 H           4.1771    6.0018    7.3829 H       1  LIG1          0.13
     54 H           5.1879    7.4286    7.3225 H       1  LIG1          0.13
     55 H          -7.1205   -4.7231   -6.9273 H       1  LIG1          0.13
     56 H          -5.3806   -4.5530   -7.0169 H       1  LIG1          0.14
     57 H           4.7870    6.5720    5.0644 H       1  LIG1          0.13
     58 H           6.4952    6.5231    5.4411 H       1  LIG1          0.13
     59 H          -6.9856   -5.7346   -4.6837 H       1  LIG1          0.14
     60 H          -6.2156   -4.1638   -4.7283 H       1  LIG1          0.14
     61 H           5.8375    4.4985    4.2411 H       1  LIG1          0.14
     62 H           6.4202    4.0923    5.8399 H       1  LIG1          0.13
     63 H          -4.7952   -6.8851   -4.7521 H       1  LIG1          0.14
     64 H          -4.9301   -5.7993   -3.3875 H       1  LIG1          0.13
     65 H           4.4654    2.7349    5.2819 H       1  LIG1          0.13
     66 H           4.1276    3.7393    6.6743 H       1  LIG1          0.13
     67 H           2.1940    3.6594    5.1658 H       1  LIG1          0.14
     68 H           2.7823    5.2992    5.3352 H       1  LIG1          0.13
     69 H           2.1583    4.8213    3.0048 H       1  LIG1          0.13
     70 H           3.8522    5.2434    3.1291 H       1  LIG1          0.14
     71 H           3.5576    3.3944    1.5559 H       1  LIG1          0.14
     72 H           4.5409    2.8894    2.9122 H       1  LIG1          0.14
     73 H           2.9963    1.1081    2.3208 H       1  LIG1          0.14
     74 H           2.6358    1.6839    3.9327 H       1  LIG1          0.13
     75 H           0.5668    1.2621    2.6950 H       1  LIG1          0.14
     76 H           0.6810    2.9542    3.1255 H       1  LIG1          0.13
     77 H          -0.1869    2.6730    0.8393 H       1  LIG1          0.13
     78 H           1.3026    3.5916    0.8415 H       1  LIG1          0.13
     79 H           1.2629    2.0065   -1.0317 H       1  LIG1          0.13
     80 H           2.6007    1.6672    0.0434 H       1  LIG1          0.14
     81 H          -3.3693   -5.2916   -5.9817 H       1  LIG1          0.14
     82 H          -2.6931   -5.6787   -4.4178 H       1  LIG1          0.13
     83 H           1.5748   -0.4261   -0.6776 H       1  LIG1          0.13
     84 H           1.4062   -0.2455    1.0507 H       1  LIG1          0.14
     85 H          -4.1466   -3.0988   -5.2201 H       1  LIG1          0.14
     86 H          -2.4370   -3.2821   -4.8971 H       1  LIG1          0.14
     87 H          -0.6491   -1.1459    0.0868 H       1  LIG1          0.14
     88 H          -0.9594    0.4125    0.8332 H       1  LIG1          0.14
     89 H          -4.7312   -3.4613   -2.8704 H       1  LIG1       0.15000000000000002
     90 H          -3.5518   -2.1749   -3.0198 H       1  LIG1          0.14
     91 H          -2.1745    0.1629   -1.2981 H       1  LIG1          0.14
     92 H          -1.0819    1.5353   -1.3162 H       1  LIG1       0.15000000000000002
     93 H          -2.9277   -5.0557   -2.1544 H       1  LIG1       0.16000000000000003
     94 H          -3.1085   -3.6711   -1.0841 H       1  LIG1       0.15000000000000002
     95 H          -0.8938    0.5393   -3.4700 H       1  LIG1       0.18000000000000005
     96 H           0.5920    0.1576   -2.6461 H       1  LIG1       0.19999999999999996
     97 H          -0.9196   -3.9421   -3.2232 H       1  LIG1       0.17000000000000004
     98 H          -0.7276   -4.2058   -1.4723 H       1  LIG1       0.17000000000000004
@<TRIPOS>BOND
     1    38     2    1
     2    40     2    1
     3    39     2    1
     4     2     4    1
     5    51     8    1
     6    47     6    1
     7     8    52    1
     8     8     6    1
     9     8    10    1
    10    56    10    1
    11     4     6    1
    12     4    43    1
    13     4    44    1
    14    55    10    1
    15     6    48    1
    16    10    12    1
    17    81    23    1
    18    85    25    1
    19    12    60    1
    20    12    59    1
    21    12    14    1
    22    23    25    1
    23    23    14    1
    24    23    82    1
    25    86    25    1
    26    63    14    1
    27    25    27    1
    28    14    64    1
    29    33    32    2
    30    95    30    1
    31    97    31    1
    32    27    90    1
    33    27    89    1
    34    27    29    1
    35    32    30    1
    36    32    34    1
    37    96    30    1
    38    30    28    1
    39    31    29    1
    40    31    34    1
    41    31    98    1
    42    93    29    1
    43    29    94    1
    44    92    28    1
    45    28    91    1
    46    28    26    1
    47    79    22    1
    48    83    24    1
    49    22    80    1
    50    22    24    1
    51    22    21    1
    52    26    87    1
    53    26    24    1
    54    26    88    1
    55    24    84    1
    56    77    21    1
    57    78    21    1
    58    21    20    1
    59    71    18    1
    60    73    19    1
    61    20    75    1
    62    20    19    1
    63    20    76    1
    64    18    19    1
    65    18    72    1
    66    18    17    1
    67    19    74    1
    68    69    17    1
    69    70    17    1
    70    17    16    1
    71    61    13    1
    72    16    67    1
    73    16    68    1
    74    16    15    1
    75    57    11    1
    76    65    15    1
    77    13    15    1
    78    13    11    1
    79    13    62    1
    80    58    11    1
    81    15    66    1
    82    11     9    1
    83    45     5    1
    84     9    54    1
    85     9    53    1
    86     9     7    1
    87    41     3    1
    88    42     3    1
    89     5     3    1
    90     5     7    1
    91     5    46    1
    92     3     1    1
    93    49     7    1
    94     7    50    1
    95     1    36    1
    96     1    35    1
    97     1    37    1
