@<TRIPOS>MOLECULE
GFGANDKVOKQAGH-WKYRUEGDSA-N	6044553	-1282.548382254308
 77 80 0 0 0
SMALL
MULLIKEN NwChem

@<TRIPOS>ATOM
      1 C          -6.1934   -1.9631    0.4787 C.3     1  LIG1      -0.5300000000000002
      2 C          -6.7654   -2.9464   -1.7902 C.3     1  LIG1      -0.5199999999999996
      3 C          -3.8784    2.0742   -3.0406 C.3     1  LIG1      -0.4800000000000004
      4 C          -1.3200    3.0488   -1.3265 C.3     1  LIG1      -0.4900000000000002
      5 C           2.0371   -2.0993    1.1812 C.3     1  LIG1      -0.4900000000000002
      6 C           6.0139    0.2423    1.8451 C.3     1  LIG1      -0.4900000000000002
      7 C          -5.7898    0.7616   -0.9302 C.3     1  LIG1      -0.3200000000000003
      8 C          -6.2077   -0.5286   -1.5944 C.2     1  LIG1      -0.20000000000000018
      9 C          -4.2555    0.9170   -0.8078 C.3     1  LIG1      -0.2699999999999996
     10 C           2.8790    0.8665   -1.1197 C.3     1  LIG1      -0.33999999999999986
     11 C          -1.2020    0.4544   -3.2871 C.3     1  LIG1      -0.29000000000000004
     12 C           0.2382    0.2345   -2.8312 C.3     1  LIG1      -0.28000000000000025
     13 C           3.8552   -0.0402   -0.3661 C.3     1  LIG1      -0.3200000000000003
     14 C          -0.3752   -0.0262    0.8061 C.3     1  LIG1      -0.3600000000000003
     15 C           2.8646   -0.7557    3.8895 C.3     1  LIG1      -0.2999999999999998
     16 C          -1.1109    1.2564    0.4041 C.3     1  LIG1      -0.29000000000000004
     17 C           1.7864   -0.2725    2.9090 C.3     1  LIG1      -0.3200000000000003
     18 C           4.9037   -2.0134    2.0415 C.3     1  LIG1       0.08999999999999986
     19 C          -6.3743   -1.7204   -1.0007 C.2     1  LIG1      0.17999999999999972
     20 C          -3.4867    0.8847   -2.1438 C.3     1  LIG1      -0.05999999999999961
     21 C           1.4460    0.7130   -0.6603 C.2     1  LIG1      0.08999999999999986
     22 C          -1.9635    0.6206   -1.9613 C.3     1  LIG1      -0.1200000000000001
     23 C           0.4254    1.2377   -1.6513 C.3     1  LIG1      -0.1900000000000004
     24 C           1.1026    0.0886    0.4801 C.2     1  LIG1      0.08000000000000007
     25 C           3.5462    0.0175    1.1371 C.3     1  LIG1      -0.1200000000000001
     26 C           4.2435   -0.1784    3.5727 C.3     1  LIG1       0.13999999999999968
     27 C          -1.0290    1.5540   -1.1068 C.3     1  LIG1      0.1299999999999999
     28 C           2.1245   -0.5708    1.4219 C.3     1  LIG1      0.04999999999999982
     29 C           4.6772   -0.4953    2.1068 C.3     1  LIG1       -0.05999999999999961
     30 O           5.4726   -2.4024    0.9256 O.3     1  LIG1      -0.5199999999999996
     31 O           4.3032    1.2238    3.8586 O.3     1  LIG1      -0.6899999999999995
     32 H          -7.1146   -2.3674    0.9213 H       1  LIG1       0.16000000000000003
     33 H          -5.9180   -1.0633    1.0343 H       1  LIG1       0.17000000000000004
     34 H          -5.4107   -2.7149    0.6527 H       1  LIG1       0.16000000000000003
     35 H          -6.8865   -2.7301   -2.8567 H       1  LIG1       0.16000000000000003
     36 H          -6.0101   -3.7384   -1.6870 H       1  LIG1       0.16000000000000003
     37 H          -7.7096   -3.3696   -1.4186 H       1  LIG1       0.16000000000000003
     38 H          -3.7487    3.0367   -2.5375 H       1  LIG1       0.15000000000000002
     39 H          -3.2971    2.0984   -3.9674 H       1  LIG1       0.15000000000000002
     40 H          -4.9327    1.9986   -3.3291 H       1  LIG1       0.15000000000000002
     41 H          -0.5404    3.6565   -0.8505 H       1  LIG1          0.14
     42 H          -2.2788    3.3404   -0.8850 H       1  LIG1       0.15000000000000002
     43 H          -1.3430    3.3108   -2.3896 H       1  LIG1       0.15000000000000002
     44 H           2.7513   -2.6568    1.7977 H       1  LIG1       0.15000000000000002
     45 H           1.0286   -2.4560    1.4211 H       1  LIG1       0.15000000000000002
     46 H           2.2324   -2.3494    0.1337 H       1  LIG1       0.15000000000000002
     47 H           5.8647    1.3199    1.9385 H       1  LIG1       0.17000000000000004
     48 H           6.7590   -0.0569    2.5909 H       1  LIG1       0.16000000000000003
     49 H           6.4440    0.0434    0.8569 H       1  LIG1       0.16000000000000003
     50 H          -6.2046    1.6084   -1.4900 H       1  LIG1          0.14
     51 H          -6.2188    0.8329    0.0767 H       1  LIG1       0.15000000000000002
     52 H          -6.3504   -0.4815   -2.6746 H       1  LIG1          0.13
     53 H          -4.0403    1.8557   -0.2793 H       1  LIG1          0.14
     54 H          -3.8911    0.1015   -0.1693 H       1  LIG1          0.13
     55 H           3.1825    1.9191   -0.9958 H       1  LIG1       0.15000000000000002
     56 H           2.9448    0.6696   -2.1981 H       1  LIG1       0.15000000000000002
     57 H          -1.2656    1.3692   -3.8899 H       1  LIG1          0.14
     58 H          -1.5966   -0.3659   -3.8983 H       1  LIG1          0.13
     59 H           0.3587   -0.7920   -2.4614 H       1  LIG1          0.13
     60 H           0.9767    0.3834   -3.6264 H       1  LIG1          0.14
     61 H           4.8776    0.2907   -0.5802 H       1  LIG1       0.15000000000000002
     62 H           3.7600   -1.0669   -0.7392 H       1  LIG1       0.15000000000000002
     63 H          -0.5400   -0.2100    1.8707 H       1  LIG1       0.15000000000000002
     64 H          -0.8134   -0.8932    0.2886 H       1  LIG1       0.15000000000000002
     65 H           2.5927   -0.4696    4.9122 H       1  LIG1          0.14
     66 H           2.9344   -1.8476    3.8643 H       1  LIG1       0.15000000000000002
     67 H          -0.6479    2.0882    0.9529 H       1  LIG1          0.12
     68 H          -2.1544    1.2131    0.7260 H       1  LIG1          0.14
     69 H           0.8377   -0.7411    3.1875 H       1  LIG1       0.15000000000000002
     70 H           1.6250    0.8116    3.0217 H       1  LIG1          0.14
     71 H           5.6798   -1.6794    0.2823 H       1  LIG1       0.43999999999999995
     72 H          -3.8312   -0.0172   -2.6722 H       1  LIG1          0.12
     73 H          -1.9189   -0.3657   -1.4726 H       1  LIG1          0.12
     74 H           0.8319    2.1665   -2.0770 H       1  LIG1          0.13
     75 H           3.4741    1.0917    1.3755 H       1  LIG1          0.14
     76 H           4.9868   -0.6258    4.2414 H       1  LIG1          0.13
     77 H           3.5232    1.6436    3.4651 H       1  LIG1       0.43000000000000005
@<TRIPOS>BOND
     1    39     3    1
     2    58    11    1
     3    57    11    1
     4    60    12    1
     5    40     3    1
     6    11    12    1
     7    11    22    1
     8     3    38    1
     9     3    20    1
    10    35     2    1
    11    12    59    1
    12    12    23    1
    13    52     8    1
    14    72    20    1
    15    43     4    1
    16    56    10    1
    17    20    22    1
    18    20     9    1
    19    74    23    1
    20    22    73    1
    21    22    27    1
    22     2    36    1
    23     2    37    1
    24     2    19    1
    25    23    27    1
    26    23    21    1
    27     8    19    2
    28     8     7    1
    29    50     7    1
    30     4    27    1
    31     4    42    1
    32     4    41    1
    33    10    55    1
    34    10    21    1
    35    10    13    1
    36    27    16    1
    37    19     1    1
    38     7     9    1
    39     7    51    1
    40     9    53    1
    41     9    54    1
    42    62    13    1
    43    21    24    2
    44    61    13    1
    45    13    25    1
    46    46     5    1
    47    71    30    1
    48    64    14    1
    49    16    68    1
    50    16    14    1
    51    16    67    1
    52     1    34    1
    53     1    32    1
    54     1    33    1
    55    24    14    1
    56    24    28    1
    57    14    63    1
    58    49     6    1
    59    30    18    1
    60    25    75    1
    61    25    28    1
    62    25    29    1
    63     5    45    1
    64     5    28    1
    65     5    44    1
    66    28    17    1
    67     6    47    1
    68     6    29    1
    69     6    48    1
    70    18    29    1
    71    29    26    1
    72    17    70    1
    73    17    69    1
    74    17    15    1
    75    77    31    1
    76    26    31    1
    77    26    15    1
    78    26    76    1
    79    66    15    1
    80    15    65    1
