@<TRIPOS>MOLECULE
GFJKJLHWWZXDAU-KXFGNQBASA-L	11095409	-1766.697081196675
 69 69 0 0 0
SMALL
MULLIKEN NwChem

@<TRIPOS>ATOM
      1 C          -4.7807   -0.0714   -1.0415 C.2     1  LIG1      -0.13999999999999968
      2 C          -3.5185   -0.4284   -1.3115 C.2     1  LIG1      -0.1200000000000001
      3 C          -5.8194   -0.8793   -0.3064 C.3     1  LIG1      -0.3099999999999996
      4 C          -2.8329   -1.7203   -0.9591 C.3     1  LIG1      -0.3200000000000003
      5 C          -5.9708   -0.4254    1.1601 C.3     1  LIG1      -0.2699999999999996
      6 C          -1.8297   -1.5723    0.2106 C.3     1  LIG1      -0.2599999999999998
      7 C          -7.0934   -1.1457    1.9300 C.3     1  LIG1      -0.2599999999999998
      8 C          -0.7229   -0.5265   -0.0111 C.3     1  LIG1      -0.2699999999999996
      9 C          -8.5419   -0.8800    1.4665 C.3     1  LIG1      -0.2699999999999996
     10 C           0.1154   -0.7220   -1.2850 C.3     1  LIG1      -0.2699999999999996
     11 C          -9.2243    0.3720    2.0471 C.3     1  LIG1      -0.2400000000000002
     12 C           0.8049   -2.0896   -1.4166 C.3     1  LIG1        -0.25
     13 C          -8.6044    1.7354    1.6905 C.3     1  LIG1      -0.2699999999999996
     14 C           1.7069   -2.4820   -0.2330 C.3     1  LIG1      -0.2599999999999998
     15 C          -8.4539    2.0525    0.1929 C.3     1  LIG1      -0.28000000000000025
     16 C           2.8434   -1.4989    0.0765 C.3     1  LIG1       -0.2999999999999998
     17 C          -9.7580    2.1674   -0.5883 C.3     1  LIG1       -0.040000000000000036
     18 C           3.8985    0.8819   -2.0999 C.3     1  LIG1       -0.03000000000000025
     19 C           5.9724    1.6852   -0.7990 C.3     1  LIG1       -0.019999999999999574
     20 C           4.6906    0.8530   -0.7862 C.3     1  LIG1       0.07000000000000028
     21 C           3.8366   -1.3721   -1.1129 C.3     1  LIG1       0.7000000000000002
     22 O         -10.3299    0.8666   -0.7446 O.3     1  LIG1      -0.6500000000000004
     23 O           4.9879   -0.5222   -0.6242 O.3     1  LIG1      -0.6099999999999994
     24 O           4.1670   -2.4217   -1.7000 O.3     1  LIG1      -0.7200000000000006
     25 O           5.1117    2.7257    1.7999 O.2     1  LIG1      -0.7200000000000006
     26 O           5.6533    0.1912    2.1302 O.3     1  LIG1      -0.7799999999999994
     27 O           7.4359    1.9348    2.7645 O.3     1  LIG1      -0.6899999999999995
     28 O           3.1191   -0.2732   -2.0861 O.3     1  LIG1      -0.5899999999999999
     29 O           6.8376    1.5015    0.3075 O.3     1  LIG1      -0.6199999999999992
     30 P           6.2426    1.7271    1.8763 P.3     1  LIG1       1.0600000000000005
     31 H          -5.1037    0.9311   -1.3312 H       1  LIG1          0.13
     32 H          -2.8845    0.3016   -1.8142 H       1  LIG1          0.13
     33 H          -6.7852   -0.7826   -0.8236 H       1  LIG1       0.15000000000000002
     34 H          -5.5707   -1.9475   -0.3190 H       1  LIG1          0.14
     35 H          -3.5672   -2.4943   -0.7017 H       1  LIG1          0.14
     36 H          -2.2866   -2.0844   -1.8387 H       1  LIG1       0.15000000000000002
     37 H          -6.1140    0.6608    1.1882 H       1  LIG1          0.14
     38 H          -5.0152   -0.6101    1.6674 H       1  LIG1          0.14
     39 H          -1.3701   -2.5531    0.3871 H       1  LIG1          0.14
     40 H          -2.3945   -1.3192    1.1206 H       1  LIG1          0.13
     41 H          -7.0136   -0.8967    2.9990 H       1  LIG1          0.13
     42 H          -6.8983   -2.2257    1.8608 H       1  LIG1          0.13
     43 H          -1.1738    0.4769   -0.0222 H       1  LIG1          0.12
     44 H          -0.0561   -0.5459    0.8595 H       1  LIG1          0.13
     45 H          -9.1582   -1.7406    1.7633 H       1  LIG1          0.12
     46 H          -8.6002   -0.8463    0.3730 H       1  LIG1          0.14
     47 H           0.9016    0.0377   -1.3276 H       1  LIG1          0.14
     48 H          -0.5194   -0.5536   -2.1710 H       1  LIG1          0.12
     49 H          -9.2379    0.2872    3.1445 H       1  LIG1          0.12
     50 H         -10.2690    0.3667    1.7161 H       1  LIG1          0.13
     51 H           0.0495   -2.8808   -1.5683 H       1  LIG1          0.12
     52 H           1.4342   -2.0621   -2.3114 H       1  LIG1          0.12
     53 H          -7.6163    1.8193    2.1589 H       1  LIG1          0.14
     54 H          -9.2194    2.5245    2.1501 H       1  LIG1          0.13
     55 H           2.1789   -3.4405   -0.4808 H       1  LIG1       0.10999999999999999
     56 H           1.0942   -2.6427    0.6703 H       1  LIG1          0.12
     57 H          -7.9258    3.0107    0.0925 H       1  LIG1          0.14
     58 H          -7.8267    1.3037   -0.3031 H       1  LIG1       0.15000000000000002
     59 H           3.4187   -1.8868    0.9277 H       1  LIG1       0.10999999999999999
     60 H           2.4625   -0.5166    0.3780 H       1  LIG1          0.13
     61 H          -9.5528    2.6169   -1.5741 H       1  LIG1          0.13
     62 H         -10.4531    2.8416   -0.0568 H       1  LIG1          0.13
     63 H           4.6028    0.9006   -2.9614 H       1  LIG1       0.09999999999999998
     64 H           3.2716    1.7902   -2.1701 H       1  LIG1          0.12
     65 H           5.6774    2.7443   -0.8929 H       1  LIG1          0.14
     66 H           6.5567    1.4040   -1.6879 H       1  LIG1          0.14
     67 H           4.0540    1.2173    0.0335 H       1  LIG1          0.13
     68 H         -11.1439    0.9591   -1.2617 H       1  LIG1       0.42000000000000004
     69 H           5.4666   -0.2276    1.2631 H       1  LIG1       0.44999999999999996
@<TRIPOS>BOND
     1    63    18    1
     2    52    12    1
     3    48    10    1
     4    64    18    1
     5    18    28    1
     6    18    20    1
     7    28    21    1
     8    36     4    1
     9    32     2    1
    10    24    21    1
    11    66    19    1
    12    61    17    1
    13    51    12    1
    14    12    10    1
    15    12    14    1
    16    31     1    1
    17    47    10    1
    18     2     1    2
    19     2     4    1
    20    10     8    1
    21    68    22    1
    22    21    23    1
    23    21    16    1
    24     1     3    1
    25     4    35    1
    26     4     6    1
    27    65    19    1
    28    33     3    1
    29    19    20    1
    30    19    29    1
    31    20    23    1
    32    20    67    1
    33    22    17    1
    34    17    62    1
    35    17    15    1
    36    55    14    1
    37    34     3    1
    38     3     5    1
    39    58    15    1
    40    14    16    1
    41    14    56    1
    42    43     8    1
    43     8     6    1
    44     8    44    1
    45    16    60    1
    46    16    59    1
    47    57    15    1
    48    15    13    1
    49     6    39    1
    50     6    40    1
    51    29    30    1
    52    46     9    1
    53     5    37    1
    54     5    38    1
    55     5     7    1
    56    69    26    1
    57     9    45    1
    58     9     7    1
    59     9    11    1
    60    13    11    1
    61    13    54    1
    62    13    53    1
    63    50    11    1
    64    25    30    2
    65    42     7    1
    66    30    26    1
    67    30    27    1
    68     7    41    1
    69    11    49    1
