@<TRIPOS>MOLECULE
GFXYTQPNNXGICT-YFKPBYRVSA-N	6044556	-515.5644474270749
 21 20 0 0 0
SMALL
MULLIKEN NwChem

@<TRIPOS>ATOM
      1 C           0.3782   -0.5350   -1.0900 C.3     1  LIG1      -0.29000000000000004
      2 C          -0.1362   -1.8380   -1.7310 C.3     1  LIG1       -0.33999999999999986
      3 C          -0.1265   -0.3556    0.3475 C.3     1  LIG1      -0.2699999999999996
      4 C           0.4230   -3.0666   -1.0468 C.2     1  LIG1       0.2699999999999996
      5 CA          0.3843    0.9137    1.0624 C.3     1  LIG1       -0.04999999999999982
      6 C          -0.1754    2.1537    0.3631 C.2     1  LIG1       0.5800000000000001
      7 N           0.0057    0.8559    2.4728 N.3     1  LIG1      -0.7599999999999998
      8 O          -0.2379   -3.9764   -0.5995 O.2     1  LIG1      -0.4499999999999993
      9 OXT        -1.2317    2.6792    0.6413 O.2     1  LIG1      -0.5199999999999996
     10 O           0.6275    2.6020   -0.6341 O.3     1  LIG1      -0.5800000000000001
     11 H           0.0727    0.3118   -1.7130 H       1  LIG1       0.17000000000000004
     12 H           1.4776   -0.5325   -1.0959 H       1  LIG1       0.16000000000000003
     13 H          -1.2298   -1.8951   -1.7094 H       1  LIG1       0.16000000000000003
     14 H           0.1867   -1.8731   -2.7825 H       1  LIG1       0.18999999999999995
     15 H          -1.2255   -0.3440    0.3565 H       1  LIG1       0.16000000000000003
     16 H           0.1797   -1.2038    0.9709 H       1  LIG1       0.16000000000000003
     17 H           1.5373   -3.0805   -0.9711 H       1  LIG1          0.13
     18 HA          1.4775    0.9427    0.9925 H       1  LIG1       0.17000000000000004
     19 H1          0.4071    1.6529    2.9660 H       1  LIG1       0.32999999999999996
     20 H2         -1.0051    0.9837    2.5355 H       1  LIG1       0.31999999999999995
     21 H           0.1710    3.3670   -1.0348 H       1  LIG1       0.43999999999999995
@<TRIPOS>BOND
     1    14     2    1
     2     2    13    1
     3     2     1    1
     4     2     4    1
     5    11     1    1
     6    12     1    1
     7     1     3    1
     8     4    17    1
     9     4     8    2
    10    21    10    1
    11    10     6    1
    12     3    15    1
    13     3    16    1
    14     3     5    1
    15     6     9    2
    16     6     5    1
    17    18     5    1
    18     5     7    1
    19     7    20    1
    20     7    19    1
