@<TRIPOS>MOLECULE
GHASVSINZRGABV-UHFFFAOYSA-N	6044558	-513.9690838900887
 12 12 0 0 0
SMALL
MULLIKEN NwChem

@<TRIPOS>ATOM
      1 C          -0.4511    1.5000    0.0003 C.ar    1  LIG1               0.0
      2 C          -1.1510    0.3120    0.0016 C.ar    1  LIG1       0.2999999999999998
      3 C          -0.4239   -0.8880    0.0009 C.ar    1  LIG1           0.5
      4 C           1.4814    0.3371   -0.0028 C.ar    1  LIG1       0.6500000000000004
      5 F          -2.5078    0.2535    0.0034 F       1  LIG1      -0.3000000000000007
      6 N           0.8892    1.5312   -0.0018 N.ar    1  LIG1      -0.4900000000000002
      7 N           0.9001   -0.8733   -0.0014 N.ar    1  LIG1      -0.5499999999999998
      8 O          -1.0318   -2.0866    0.0024 O.3     1  LIG1      -0.6099999999999994
      9 O           2.8249    0.3554   -0.0057 O.3     1  LIG1      -0.6199999999999992
     10 H          -0.9807    2.4501    0.0009 H       1  LIG1       0.19999999999999996
     11 H          -1.9936   -1.9392    0.0041 H       1  LIG1       0.45999999999999996
     12 H           3.1129   -0.5740   -0.0067 H       1  LIG1       0.45999999999999996
@<TRIPOS>BOND
     1    12     9    1
     2     9     4    1
     3     4     6   ar
     4     4     7   ar
     5     6     1   ar
     6     7     3   ar
     7     1    10    1
     8     1     2   ar
     9     3     2   ar
    10     3     8    1
    11     2     5    1
    12     8    11    1
