@<TRIPOS>MOLECULE
GHLUPQUHEIJRCU-DWVDDHQFSA-L	11095406	-2080.4741959860103
 52 54 0 0 0
SMALL
MULLIKEN NwChem

@<TRIPOS>ATOM
      1 CG2        -7.0029    0.6682   -0.2373 C.3     1  THR1      -0.46999999999999975
      2 C           0.3905   -1.2155    1.1518 C.3     0  UNK0       -0.04999999999999982
      3 C           5.1665   -2.2482    1.5406 C.ar    0  UNK0       0.15000000000000036
      4 C           4.8434    1.4508   -0.7075 C.ar    0  UNK0       0.21999999999999975
      5 CB         -6.0733    1.4834   -1.1413 C.3     1  THR1       0.1299999999999999
      6 C           0.4896   -0.1949    0.0106 C.3     0  UNK0       0.08999999999999986
      7 CA         -4.6242    1.5447   -0.5823 C.3     1  THR1       -0.08999999999999986
      8 C           5.9205    0.0674    0.4719 C.ar    0  UNK0       0.1900000000000004
      9 C           0.5944   -0.8107   -1.3903 C.3     0  UNK0       0.08999999999999986
     10 C           2.1144   -0.8798   -1.6289 C.3     0  UNK0       0.08000000000000007
     11 C           6.8195   -0.6735    1.2569 C.ar    0  UNK0       0.4500000000000002
     12 C           4.6381   -0.4833    0.3071 C.ar    0  UNK0       0.5300000000000002
     13 C           2.5534    0.4098   -0.9021 C.3     0  UNK0       0.28000000000000025
     14 C          -4.6154    2.2964    0.7657 C.2     1  THR1       0.5999999999999996
     15 C          -2.9415   -0.0087   -1.0380 C.2     0  UNK0       0.7000000000000002
     16 N           8.1146   -0.2501    1.4649 N.pl3   0  UNK0      -0.7800000000000002
     17 N           6.4261   -1.8361    1.7970 N.ar    0  UNK0        -0.54
     18 N           4.2201   -1.6502    0.8197 N.ar    0  UNK0      -0.5300000000000002
     19 N           6.0348    1.2869   -0.1727 N.ar    0  UNK0      -0.5700000000000003
     20 N          -4.0623    0.2364   -0.4138 N.am    1  THR1      -0.5899999999999999
     21 N           3.9564    0.4267   -0.4738 N.ar    0  UNK0      -0.5099999999999998
     22 OG1        -6.6052    2.7887   -1.3887 O.3     1  THR1      -0.7100000000000009
     23 O           0.1233    0.0483   -2.4085 O.3     0  UNK0      -0.7599999999999998
     24 O           2.4518   -0.8726   -3.0003 O.3     0  UNK0      -0.6899999999999995
     25 O          -5.2633    3.3390    0.9284 O.2     1  THR1      -0.5700000000000003
     26 OXT        -3.8823    1.8119    1.7451 O.3     1  THR1      -0.6300000000000008
     27 O          -2.3491    0.6454   -1.9519 O.2     0  UNK0      -0.6699999999999999
     28 O          -2.2545   -0.3016    1.8185 O.3     0  UNK0      -0.7400000000000002
     29 O          -3.1127   -2.7669    1.2857 O.2     0  UNK0      -0.6500000000000004
     30 O          -0.6689   -2.1427    0.9936 O.3     0  UNK0      -0.5899999999999999
     31 O           1.7314    0.5648    0.2181 O.3     0  UNK0      -0.5500000000000007
     32 O          -2.2820   -1.1706   -0.6330 O.3     0  UNK0      -0.6199999999999992
     33 P          -2.2523   -1.5818    1.0029 P.3     0  UNK0          1.17
     34 HG21       -6.5661   -0.3164   -0.0444 H       1  THR1       0.15000000000000002
     35 HG22       -7.1356    1.1854    0.7214 H       1  THR1          0.14
     36 HG23       -7.9904    0.5591   -0.7041 H       1  THR1       0.15000000000000002
     37 H           0.2940   -0.6622    2.0945 H       0  UNK0       0.16000000000000003
     38 H           1.3222   -1.7956    1.1798 H       0  UNK0       0.15000000000000002
     39 H           4.8885   -3.1984    1.9924 H       0  UNK0       0.17000000000000004
     40 H           4.5380    2.3077   -1.2943 H       0  UNK0       0.20999999999999996
     41 HB         -5.9983    0.9845   -2.1162 H       1  THR1          0.13
     42 H          -0.3424    0.5089    0.0526 H       0  UNK0       0.16000000000000003
     43 HA         -4.0526    2.1833   -1.2783 H       1  THR1       0.15000000000000002
     44 H           0.1038   -1.7889   -1.4136 H       0  UNK0       0.15000000000000002
     45 H           2.5639   -1.7520   -1.1471 H       0  UNK0       0.17000000000000004
     46 H           2.4532    1.2479   -1.6081 H       0  UNK0       0.17000000000000004
     47 H           8.5578   -0.6502    2.2816 H       0  UNK0          0.37
     48 H           8.2651    0.7413    1.3285 H       0  UNK0          0.37
     49 HG1        -6.3246    3.2948   -0.5945 H       1  THR1       0.42000000000000004
     50 H          -0.8773    0.2245   -2.2604 H       0  UNK0       0.44999999999999996
     51 H           1.6544   -0.4518   -3.3930 H       0  UNK0       0.43000000000000005
     52 HXT        -3.4199    0.9327    1.5241 H       1  THR1           0.49
@<TRIPOS>BOND
     1    51    24    1
     2    24    10    1
     3    23    50    1
     4    23     9    1
     5    41     5    1
     6    27    15    2
     7    10     9    1
     8    10    45    1
     9    10    13    1
    10    46    13    1
    11    44     9    1
    12     9     6    1
    13    22     5    1
    14    22    49    1
    15    40     4    1
    16    43     7    1
    17     5     7    1
    18     5     1    1
    19    15    32    1
    20    15    20   am
    21    13    21    1
    22    13    31    1
    23     4    21   ar
    24     4    19   ar
    25    36     1    1
    26    32    33    1
    27     7    20    1
    28     7    14    1
    29    21    12   ar
    30     1    34    1
    31     1    35    1
    32    19     8   ar
    33     6    42    1
    34     6    31    1
    35     6     2    1
    36    12     8   ar
    37    12    18   ar
    38     8    11   ar
    39    14    25    2
    40    14    26    1
    41    18     3   ar
    42    30    33    1
    43    30     2    1
    44    33    29    2
    45    33    28    1
    46     2    38    1
    47     2    37    1
    48    11    16    1
    49    11    17   ar
    50    48    16    1
    51    16    47    1
    52    52    26    1
    53     3    17   ar
    54     3    39    1
