@<TRIPOS>MOLECULE
GHOKWGTUZJEAQD-ZETCQYMHSA-M	6044560	-783.3833541768925
 31 30 0 0 0
SMALL
MULLIKEN NwChem

@<TRIPOS>ATOM
      1 C           1.1329   -0.9297   -1.0131 C.3     1  LIG1            -0.54
      2 C           0.1011   -1.6460    1.1768 C.3     1  LIG1      -0.5300000000000002
      3 C          -3.1362    0.4103   -0.8769 C.3     1  LIG1       -0.3200000000000003
      4 C          -2.2462    1.2060    0.0963 C.3     1  LIG1       -0.16000000000000014
      5 C           2.4851   -1.0554    1.0983 C.3     1  LIG1       -0.08000000000000007
      6 C          -2.5248   -0.9988   -1.1446 C.2     1  LIG1       0.5300000000000002
      7 C           0.7390    0.8146    0.8765 C.3     1  LIG1       0.04999999999999982
      8 C           0.0924    1.6237   -0.2721 C.2     1  LIG1       0.4800000000000004
      9 C           1.1051   -0.6858    0.5117 C.3     1  LIG1       0.05999999999999961
     10 N          -1.1136    1.8020   -0.5923 N.2     1  LIG1      -0.4900000000000002
     11 O           3.5888   -0.3183    0.5207 O.3     1  LIG1      -0.6699999999999999
     12 O          -2.6601   -1.8061   -0.1809 O.co2   1  LIG1      -0.6600000000000001
     13 O          -1.9137   -1.1639   -2.2295 O.co2   1  LIG1      -0.6500000000000004
     14 O           1.8804    1.5921    1.3226 O.3     1  LIG1      -0.7200000000000006
     15 O           1.0520    2.2625   -1.0245 O.2     1  LIG1      -0.6500000000000004
     16 H           1.5384   -1.9293   -1.2219 H       1  LIG1       0.15000000000000002
     17 H           1.7419   -0.1808   -1.5371 H       1  LIG1       0.15000000000000002
     18 H           0.1267   -0.8934   -1.4504 H       1  LIG1       0.18000000000000005
     19 H          -0.9190   -1.5397    0.7866 H       1  LIG1       0.19999999999999996
     20 H           0.3906   -2.6857    0.9760 H       1  LIG1       0.15000000000000002
     21 H           0.0949   -1.5031    2.2673 H       1  LIG1          0.14
     22 H          -4.1191    0.2785   -0.4050 H       1  LIG1          0.12
     23 H          -3.2507    0.9819   -1.8044 H       1  LIG1          0.12
     24 H          -1.9873    0.5425    0.9366 H       1  LIG1          0.14
     25 H          -2.8205    2.0495    0.5116 H       1  LIG1       0.15000000000000002
     26 H           2.5331   -0.8426    2.1709 H       1  LIG1       0.17000000000000004
     27 H           2.6538   -2.1316    0.9550 H       1  LIG1       0.16000000000000003
     28 H           0.0463    0.7995    1.7219 H       1  LIG1       0.17000000000000004
     29 H           3.4921   -0.4023   -0.4428 H       1  LIG1       0.43999999999999995
     30 H           2.6914    1.1103    1.0574 H       1  LIG1       0.44999999999999996
     31 H           1.8004    2.3528   -0.4016 H       1  LIG1       0.43999999999999995
@<TRIPOS>BOND
     1    13     6   ar
     2    23     3    1
     3    17     1    1
     4    18     1    1
     5    16     1    1
     6     6     3    1
     7     6    12   ar
     8    15    31    1
     9    15     8    1
    10     1     9    1
    11     3    22    1
    12     3     4    1
    13    10     8    2
    14    10     4    1
    15    29    11    1
    16     8     7    1
    17     4    25    1
    18     4    24    1
    19     9     7    1
    20     9     5    1
    21     9     2    1
    22    11     5    1
    23    19     2    1
    24     7    14    1
    25     7    28    1
    26    27     5    1
    27    20     2    1
    28    30    14    1
    29     5    26    1
    30     2    21    1
