@<TRIPOS>MOLECULE
GHRBCDHNYSUFRN-IUYQGCFVSA-N	6044561	-774.8173605123758
 29 30 0 0 0
SMALL
MULLIKEN NwChem

@<TRIPOS>ATOM
      1 C           1.1508   -2.4833   -0.5053 C.3     1  LIG1      -0.45999999999999996
      2 C           1.1101   -2.7402    2.9148 C.3     1  LIG1      -0.46999999999999975
      3 C          -0.1773   -2.0084    0.1138 C.3     1  LIG1       -0.04999999999999982
      4 C           0.1002   -1.6030    2.7130 C.3     1  LIG1       0.09999999999999964
      5 C           0.0572   -1.0667    1.2918 C.2     1  LIG1       0.2999999999999998
      6 C          -0.0025    0.7508   -0.1293 C.2     1  LIG1       0.16999999999999993
      7 C          -0.6601    0.0219   -1.1186 C.3     1  LIG1       0.6299999999999999
      8 C           0.2299    2.1248   -0.4355 C.2     1  LIG1       0.5099999999999998
      9 C          -0.7475    2.0023   -2.5434 C.cat   1  LIG1       0.6100000000000003
     10 N          -1.1420    2.4221   -3.6885 N.pl3   1  LIG1        -0.75
     11 N          -0.9960   -1.2750   -0.8693 N.3     1  LIG1      -0.6399999999999997
     12 N           0.1974    0.1988    1.1313 N.2     1  LIG1      -0.5899999999999999
     13 N          -1.0182    0.6296   -2.2713 N.pl3   1  LIG1        -0.71
     14 N          -0.0933    2.7149   -1.5598 N.2     1  LIG1      -0.6299999999999999
     15 O           0.3896   -0.5709    3.6257 O.3     1  LIG1      -0.6899999999999995
     16 O           0.8392    2.8603    0.5087 O.2     1  LIG1      -0.6300000000000008
     17 H           0.9597   -3.1126   -1.3831 H       1  LIG1       0.17000000000000004
     18 H           1.7359   -3.0637    0.2126 H       1  LIG1       0.18000000000000005
     19 H           1.7468   -1.6202   -0.8191 H       1  LIG1       0.17000000000000004
     20 H           2.1179   -2.4032    2.6512 H       1  LIG1       0.16000000000000003
     21 H           1.1092   -3.0266    3.9705 H       1  LIG1       0.16000000000000003
     22 H           0.8559   -3.6252    2.3199 H       1  LIG1       0.17000000000000004
     23 H          -0.7657   -2.8725    0.4419 H       1  LIG1       0.18999999999999995
     24 H          -0.9101   -2.0118    2.9167 H       1  LIG1       0.15000000000000002
     25 H          -0.8947    3.4082   -3.7769 H       1  LIG1       0.30000000000000004
     26 H          -1.3782   -1.8203   -1.6318 H       1  LIG1          0.39
     27 H          -1.4995    0.1373   -3.0142 H       1  LIG1          0.38
     28 H           0.3858    0.2542    3.0984 H       1  LIG1       0.42000000000000004
     29 H           0.9019    3.7594    0.1353 H       1  LIG1       0.43999999999999995
@<TRIPOS>BOND
     1    25    10    1
     2    10     9    1
     3    27    13    1
     4     9    13    1
     5     9    14    2
     6    13     7    1
     7    26    11    1
     8    14     8    1
     9    17     1    1
    10     7    11    1
    11     7     6    1
    12    11     3    1
    13    19     1    1
    14     1     3    1
    15     1    18    1
    16     8     6    2
    17     8    16    1
    18     6    12    1
    19     3    23    1
    20     3     5    1
    21    29    16    1
    22    12     5    2
    23     5     4    1
    24    22     2    1
    25    20     2    1
    26     4     2    1
    27     4    24    1
    28     4    15    1
    29     2    21    1
    30    28    15    1
