@<TRIPOS>MOLECULE
GHRWXPXOBGRSHG-UHFFFAOYSA-N	6044562	-2471.931578192179
 109 110 0 0 0
SMALL
MULLIKEN NwChem

@<TRIPOS>ATOM
      1 C           3.4610   -3.5327   -6.5745 C.3     1  LIG1      -0.45999999999999996
      2 C           2.3694   -1.3024   -6.1222 C.3     1  LIG1      -0.45999999999999996
      3 C          -0.8196   -4.6788   -2.8839 C.3     1  LIG1      -0.4800000000000004
      4 C           3.4210   -2.2691    0.8027 C.3     1  LIG1      -0.4800000000000004
      5 C           0.1016    1.9636   -2.3466 C.3     1  LIG1      -0.4800000000000004
      6 C          -3.2090   -0.4488    1.5952 C.3     1  LIG1      -0.4800000000000004
      7 C           0.4532   -0.1049    5.5802 C.3     1  LIG1      -0.46999999999999975
      8 C           2.0227    3.2822    0.2941 C.3     1  LIG1      -0.6200000000000001
      9 C           0.9205   -4.9016   -5.4246 C.3     1  LIG1      -0.28000000000000025
     10 C           2.7743   -4.6288   -1.2727 C.3     1  LIG1      -0.28000000000000025
     11 C           2.2558   -0.3526   -2.4430 C.3     1  LIG1      -0.29000000000000004
     12 C          -1.9375   -1.1395   -1.0632 C.3     1  LIG1      -0.29000000000000004
     13 C           0.1818   -1.8370    3.0205 C.3     1  LIG1      -0.28000000000000025
     14 C           1.0181   -3.4197   -5.8307 C.3     1  LIG1      -0.2599999999999998
     15 C           1.4063   -5.2207   -3.9996 C.3     1  LIG1      -0.2699999999999996
     16 C           1.2629   -4.8428   -1.4786 C.3     1  LIG1      -0.2699999999999996
     17 C           3.2699   -3.1980   -1.5492 C.3     1  LIG1      -0.28000000000000025
     18 C           2.9410   -0.6876   -1.1032 C.3     1  LIG1      -0.28000000000000025
     19 C           0.7225   -0.4930   -2.4512 C.3     1  LIG1      -0.28000000000000025
     20 C          -1.5552    0.2736   -1.5353 C.3     1  LIG1      -0.2699999999999996
     21 C          -1.3430   -1.6063    0.2756 C.3     1  LIG1      -0.28000000000000025
     22 C          -1.3151   -1.5518    2.8121 C.3     1  LIG1      -0.2699999999999996
     23 C           1.0662   -0.5843    3.1407 C.3     1  LIG1      -0.28000000000000025
     24 C           1.5496    1.6831    4.1506 C.3     1  LIG1      -0.28000000000000025
     25 C           0.8731    3.0228    4.5315 C.3     1  LIG1      -0.34999999999999964
     26 C          -3.5915    3.4826    0.8549 C.ar    1  LIG1      -0.1200000000000001
     27 C          -4.7031    3.1438    1.5841 C.ar    1  LIG1      -0.34999999999999964
     28 C           2.4199   -2.7862   -5.7284 C.3     1  LIG1      -0.08000000000000007
     29 C           0.6996   -4.4572   -2.8631 C.3     1  LIG1      -0.08000000000000007
     30 C           2.7499   -2.1253   -0.5718 C.3     1  LIG1      -0.08999999999999986
     31 C          -0.0489    0.5906   -1.6717 C.3     1  LIG1      -0.08000000000000007
     32 C          -1.7130   -0.7876    1.5309 C.3     1  LIG1      -0.07000000000000028
     33 C           0.5981    0.4655    4.1618 C.3     1  LIG1      -0.07000000000000028
     34 C          -0.2107    3.3454    3.5286 C.2     1  LIG1       0.09999999999999964
     35 C          -2.4202    3.4959    1.6626 C.ar    1  LIG1       0.1200000000000001
     36 C          -1.0587    3.8669    1.2225 C.2     1  LIG1       0.4299999999999997
     37 C          -1.6172    3.0551    3.9907 C.2     1  LIG1       0.4400000000000004
     38 C           0.0351    3.7612    2.2526 C.2     1  LIG1       -0.20999999999999996
     39 C          -2.6668    3.1594    2.9762 C.ar    1  LIG1       -0.2699999999999996
     40 O          -0.8511    4.2300    0.0705 O.2     1  LIG1         -0.5
     41 O          -1.8584    2.7140    5.1457 O.2     1  LIG1      -0.5299999999999994
     42 S           1.6720    4.2932    1.7839 S.3     1  LIG1      0.08999999999999986
     43 S          -4.3444    2.8303    3.2543 S.2     1  LIG1      0.3200000000000003
     44 H           3.1592   -3.5475   -7.6304 H       1  LIG1          0.14
     45 H           3.5887   -4.5708   -6.2489 H       1  LIG1       0.15000000000000002
     46 H           4.4406   -3.0434   -6.5136 H       1  LIG1          0.14
     47 H           2.0903   -1.1901   -7.1781 H       1  LIG1          0.14
     48 H           1.6336   -0.7538   -5.5228 H       1  LIG1       0.15000000000000002
     49 H           3.3435   -0.8184   -5.9811 H       1  LIG1          0.14
     50 H          -1.0573   -5.7489   -2.8262 H       1  LIG1          0.14
     51 H          -1.2985   -4.1858   -2.0298 H       1  LIG1       0.15000000000000002
     52 H          -1.2806   -4.2828   -3.7955 H       1  LIG1       0.15000000000000002
     53 H           4.5118   -2.1754    0.7145 H       1  LIG1          0.14
     54 H           3.0750   -1.4949    1.4932 H       1  LIG1       0.15000000000000002
     55 H           3.2083   -3.2408    1.2613 H       1  LIG1       0.15000000000000002
     56 H          -0.2704    1.9197   -3.3792 H       1  LIG1          0.14
     57 H          -0.4695    2.7330   -1.8159 H       1  LIG1       0.15000000000000002
     58 H           1.1442    2.2934   -2.3915 H       1  LIG1       0.15000000000000002
     59 H          -3.8188   -1.3598    1.5350 H       1  LIG1          0.14
     60 H          -3.4497    0.0501    2.5402 H       1  LIG1       0.15000000000000002
     61 H          -3.5189    0.2182    0.7843 H       1  LIG1       0.15000000000000002
     62 H           1.4099   -0.5193    5.9253 H       1  LIG1          0.14
     63 H           0.1463    0.6753    6.2841 H       1  LIG1       0.15000000000000002
     64 H          -0.2946   -0.9032    5.6298 H       1  LIG1       0.16000000000000003
     65 H           3.0604    3.4927    0.0231 H       1  LIG1       0.19999999999999996
     66 H           1.9219    2.2178    0.5235 H       1  LIG1       0.21999999999999997
     67 H           1.3566    3.5577   -0.5194 H       1  LIG1       0.21999999999999997
     68 H          -0.1208   -5.2271   -5.5418 H       1  LIG1          0.13
     69 H           1.4989   -5.5117   -6.1301 H       1  LIG1          0.13
     70 H           3.0264   -4.9205   -0.2449 H       1  LIG1          0.13
     71 H           3.3310   -5.3187   -1.9186 H       1  LIG1          0.13
     72 H           2.5379    0.6679   -2.7300 H       1  LIG1          0.13
     73 H           2.6657   -0.9956   -3.2293 H       1  LIG1       0.15000000000000002
     74 H          -3.0322   -1.1980   -1.0106 H       1  LIG1          0.13
     75 H          -1.6459   -1.8646   -1.8338 H       1  LIG1          0.14
     76 H           0.2902   -2.4423    3.9301 H       1  LIG1          0.13
     77 H           0.5686   -2.4593    2.2020 H       1  LIG1          0.14
     78 H           0.3224   -2.8286   -5.2191 H       1  LIG1          0.14
     79 H           0.6672   -3.3181   -6.8686 H       1  LIG1          0.12
     80 H           1.2860   -6.2997   -3.8201 H       1  LIG1          0.12
     81 H           2.4847   -5.0275   -3.9476 H       1  LIG1          0.14
     82 H           0.7085   -4.2799   -0.7140 H       1  LIG1          0.13
     83 H           1.0335   -5.9025   -1.2925 H       1  LIG1          0.12
     84 H           4.3697   -3.1868   -1.5296 H       1  LIG1          0.12
     85 H           2.9919   -2.9332   -2.5735 H       1  LIG1       0.15000000000000002
     86 H           2.5833    0.0099   -0.3315 H       1  LIG1          0.14
     87 H           4.0188   -0.4926   -1.2050 H       1  LIG1          0.12
     88 H           0.3638   -0.4833   -3.4909 H       1  LIG1          0.13
     89 H           0.4656   -1.4819   -2.0600 H       1  LIG1       0.15000000000000002
     90 H          -1.9934    1.0211   -0.8595 H       1  LIG1          0.13
     91 H          -2.0330    0.4390   -2.5128 H       1  LIG1          0.12
     92 H          -1.6651   -2.6467    0.4373 H       1  LIG1          0.13
     93 H          -0.2505   -1.6429    0.1902 H       1  LIG1       0.16000000000000003
     94 H          -1.6941   -0.9973    3.6806 H       1  LIG1          0.14
     95 H          -1.8573   -2.5092    2.8137 H       1  LIG1          0.12
     96 H           2.0884   -0.8953    3.3982 H       1  LIG1          0.13
     97 H           1.1369   -0.0976    2.1571 H       1  LIG1       0.15000000000000002
     98 H           2.3858    1.5031    4.8397 H       1  LIG1          0.14
     99 H           1.9929    1.8002    3.1546 H       1  LIG1       0.16000000000000003
    100 H           0.4248    2.9527    5.5259 H       1  LIG1       0.17000000000000004
    101 H           1.6252    3.8158    4.5580 H       1  LIG1       0.18000000000000005
    102 H          -3.5909    3.7081   -0.2046 H       1  LIG1       0.18999999999999995
    103 H          -5.7233    3.0631    1.2315 H       1  LIG1       0.22999999999999998
    104 H           2.7418   -2.8394   -4.6792 H       1  LIG1       0.15000000000000002
    105 H           0.8761   -3.3844   -3.0117 H       1  LIG1          0.14
    106 H           1.6733   -2.2863   -0.4300 H       1  LIG1       0.15000000000000002
    107 H           0.3699    0.6525   -0.6549 H       1  LIG1          0.14
    108 H          -1.1591    0.1638    1.4999 H       1  LIG1          0.13
    109 H          -0.3937    0.8021    3.8381 H       1  LIG1           0.14
@<TRIPOS>BOND
     1    44     1    1
     2    47     2    1
     3    79    14    1
     4     1    46    1
     5     1    45    1
     6     1    28    1
     7    69     9    1
     8     2    49    1
     9     2    28    1
    10     2    48    1
    11    14    28    1
    12    14     9    1
    13    14    78    1
    14    28   104    1
    15    68     9    1
    16     9    15    1
    17    15    81    1
    18    15    80    1
    19    15    29    1
    20    52     3    1
    21    88    19    1
    22    56     5    1
    23    73    11    1
    24   105    29    1
    25     3    29    1
    26     3    50    1
    27     3    51    1
    28    29    16    1
    29    72    11    1
    30    85    17    1
    31    91    20    1
    32    19    11    1
    33    19    89    1
    34    19    31    1
    35    11    18    1
    36    58     5    1
    37     5    57    1
    38     5    31    1
    39    71    10    1
    40    75    12    1
    41    31    20    1
    42    31   107    1
    43    17    84    1
    44    17    10    1
    45    17    30    1
    46    20    12    1
    47    20    90    1
    48    16    83    1
    49    16    10    1
    50    16    82    1
    51    10    70    1
    52    87    18    1
    53    18    30    1
    54    18    86    1
    55    12    74    1
    56    12    21    1
    57    30   106    1
    58    30     4    1
    59    67     8    1
    60   102    26    1
    61    65     8    1
    62    40    36    2
    63    93    21    1
    64    21    92    1
    65    21    32    1
    66     8    66    1
    67     8    42    1
    68    53     4    1
    69    61     6    1
    70     4    55    1
    71     4    54    1
    72    26    27   ar
    73    26    35   ar
    74    36    35    1
    75    36    38    1
    76   103    27    1
    77   108    32    1
    78    32     6    1
    79    32    22    1
    80    59     6    1
    81    27    43   ar
    82     6    60    1
    83    35    39   ar
    84    42    38    1
    85    97    23    1
    86    77    13    1
    87    38    34    2
    88    22    95    1
    89    22    13    1
    90    22    94    1
    91    39    43   ar
    92    39    37    1
    93    13    23    1
    94    13    76    1
    95    23    96    1
    96    23    33    1
    97    99    24    1
    98    34    37    1
    99    34    25    1
   100   109    33    1
   101    37    41    2
   102    24    33    1
   103    24    25    1
   104    24    98    1
   105    33     7    1
   106    25   101    1
   107    25   100    1
   108     7    64    1
   109     7    62    1
   110     7    63    1
