@<TRIPOS>MOLECULE
GHVNFZFCNZKVNT-UHFFFAOYSA-M	6044563	-542.8888309580464
 31 30 0 0 0
SMALL
MULLIKEN NwChem

@<TRIPOS>ATOM
      1 C           2.2241    3.4979    2.4588 C.3     1  LIG1      -0.45999999999999996
      2 C           2.1037    3.1146    0.9792 C.3     1  LIG1        -0.25
      3 C           2.5412    1.6730    0.6710 C.3     1  LIG1      -0.2599999999999998
      4 C           1.7550    0.5763    1.4112 C.3     1  LIG1      -0.2699999999999996
      5 C           0.2306    0.6102    1.1993 C.3     1  LIG1      -0.2699999999999996
      6 C          -0.2296    0.5407   -0.2666 C.3     1  LIG1      -0.2699999999999996
      7 C           0.2675   -0.6894   -1.0467 C.3     1  LIG1      -0.2699999999999996
      8 C          -0.1319   -2.0480   -0.4388 C.3     1  LIG1        -0.25
      9 C          -1.6343   -2.1610   -0.1311 C.3     1  LIG1       -0.33999999999999986
     10 C          -2.4944   -1.7424   -1.3785 C.2     1  LIG1       0.5300000000000002
     11 O          -2.2539   -2.4027   -2.4224 O.co2   1  LIG1      -0.6799999999999997
     12 O          -3.2824   -0.7764   -1.2033 O.co2   1  LIG1      -0.6799999999999997
     13 H           1.5531    2.8966    3.0821 H       1  LIG1       0.15000000000000002
     14 H           1.9702    4.5529    2.6207 H       1  LIG1          0.14
     15 H           3.2472    3.3390    2.8255 H       1  LIG1          0.14
     16 H           1.0670    3.2590    0.6501 H       1  LIG1          0.14
     17 H           2.7130    3.8047    0.3779 H       1  LIG1          0.13
     18 H           2.4546    1.5052   -0.4099 H       1  LIG1          0.14
     19 H           3.6105    1.5689    0.9133 H       1  LIG1          0.13
     20 H           2.1393   -0.3987    1.0848 H       1  LIG1          0.13
     21 H           1.9699    0.6370    2.4884 H       1  LIG1          0.13
     22 H          -0.2102   -0.2292    1.7517 H       1  LIG1          0.13
     23 H          -0.1813    1.5199    1.6617 H       1  LIG1          0.13
     24 H          -1.3255    0.5374   -0.3052 H       1  LIG1          0.13
     25 H           0.0959    1.4511   -0.7935 H       1  LIG1          0.13
     26 H          -0.1638   -0.6474   -2.0531 H       1  LIG1          0.12
     27 H           1.3625   -0.6499   -1.1675 H       1  LIG1          0.13
     28 H           0.1182   -2.8251   -1.1712 H       1  LIG1          0.12
     29 H           0.4666   -2.2482    0.4663 H       1  LIG1          0.13
     30 H          -1.8596   -3.2060    0.1303 H       1  LIG1          0.12
     31 H          -1.9092   -1.5385    0.7301 H       1  LIG1       0.10999999999999999
@<TRIPOS>BOND
     1    11    10   ar
     2    26     7    1
     3    10    12   ar
     4    10     9    1
     5    28     8    1
     6    27     7    1
     7     7     8    1
     8     7     6    1
     9    25     6    1
    10     8     9    1
    11     8    29    1
    12    18     3    1
    13    24     6    1
    14     6     5    1
    15     9    30    1
    16     9    31    1
    17    17     2    1
    18    16     2    1
    19     3    19    1
    20     3     2    1
    21     3     4    1
    22     2     1    1
    23    20     4    1
    24     5     4    1
    25     5    23    1
    26     5    22    1
    27     4    21    1
    28     1    14    1
    29     1    15    1
    30     1    13    1
