@<TRIPOS>MOLECULE
GJAWHXHKYYXBSV-UHFFFAOYSA-L	11095404	-624.4294292866415
 15 15 0 0 0
SMALL
MULLIKEN NwChem

@<TRIPOS>ATOM
      1 C           2.5474   -0.6249    0.6726 C.ar    1  LIG1      -0.16999999999999993
      2 C           1.3463   -1.3337    0.5785 C.ar    1  LIG1      -0.16999999999999993
      3 C           2.5060    0.7299    0.3543 C.ar    1  LIG1       0.019999999999999574
      4 C           0.1667   -0.7091    0.1679 C.ar    1  LIG1       0.009999999999999787
      5 CA          0.2303    0.6850   -0.1274 C.ar    1  LIG1       0.1299999999999999
      6 C          -1.0900   -1.6253    0.0318 C.2     1  LIG1       0.46999999999999975
      7 C          -0.9661    1.5946   -0.4978 C.2     1  LIG1       0.46999999999999975
      8 N           1.3998    1.3747   -0.0275 N.ar    1  LIG1        -0.54
      9 O          -1.0412   -2.6933    0.7138 O.co2   1  LIG1      -0.6799999999999997
     10 O          -1.9764   -1.2477   -0.7648 O.co2   1  LIG1      -0.6699999999999999
     11 O          -1.0169    1.9757   -1.6913 O.co2   1  LIG1      -0.6699999999999999
     12 OXT        -1.6690    1.9250    0.4910 O.co2   1  LIG1      -0.6600000000000001
     13 H           3.4790   -1.1023    0.9849 H       1  LIG1       0.15000000000000002
     14 H           1.2739   -2.3890    0.8323 H       1  LIG1       0.15000000000000002
     15 H           3.4188    1.3374    0.4106 H       1  LIG1       0.15000000000000002
@<TRIPOS>BOND
     1    11     7   ar
     2    10     6   ar
     3     7     5    1
     4     7    12   ar
     5     5     8   ar
     6     5     4   ar
     7     8     3   ar
     8     6     4    1
     9     6     9   ar
    10     4     2   ar
    11     3    15    1
    12     3     1   ar
    13     2     1   ar
    14     2    14    1
    15     1    13    1
