@<TRIPOS>MOLECULE
GJEZZQVPWMCGSB-BJDJZHNGSA-L	11095403	-5208.89311367356
 71 70 0 0 0
SMALL
MULLIKEN NwChem

@<TRIPOS>ATOM
      1 C          -4.9221    3.2727    1.1752 C.3     1  UNK1       -0.2699999999999996
      2 C           6.0268    3.0966   -0.0620 C.3     1  UNK1       -0.28000000000000025
      3 C          -5.5974    2.0347    1.7959 C.3     1  UNK1       -0.33999999999999986
      4 C           6.5155    1.6359   -0.0988 C.3     1  UNK1       -0.3099999999999996
      5 CA         -5.1577   -4.4026    0.6410 C.3     2  GLY2       -0.23000000000000043
      6 CA          3.5411   -3.9079    0.1114 C.3     2  GLY2       -0.28000000000000025
      7 C          -2.2944   -0.8440    1.2896 C.3     1  UNK1       -0.4500000000000002
      8 C           2.5966   -0.1980   -0.7656 C.3     1  UNK1       -0.4299999999999997
      9 C          -4.8370    3.2809   -0.3598 C.3     1  UNK1       -0.08000000000000007
     10 C           5.1759    3.4169    1.2021 C.3     1  UNK1       -0.040000000000000036
     11 C          -3.6329   -0.9524    0.5198 C.3     1  UNK1       -0.04999999999999982
     12 C           3.8093   -1.0054   -0.2335 C.3     1  UNK1       -0.07000000000000028
     13 C          -4.8524    0.6925    1.7585 C.2     1  UNK1       0.5199999999999996
     14 C           5.4634    0.6770   -0.6694 C.2     1  UNK1       0.5099999999999998
     15 C          -5.4090   -5.3381   -0.5480 C.2     2  GLY2       0.5899999999999999
     16 C           3.8473   -5.3970    0.2901 C.2     2  GLY2       0.5999999999999996
     17 C          -4.3395   -2.2282    0.9849 C.2     1  UNK1          0.54
     18 C           4.2281   -2.1007   -1.2392 C.2     1  UNK1       0.5099999999999998
     19 C          -4.8314    4.7064   -0.9537 C.2     1  UNK1       0.6100000000000003
     20 C           4.8236    4.8906    1.1491 C.2     1  UNK1       0.5899999999999999
     21 N          -3.7254    2.5309   -0.9689 N.3     1  UNK1       -0.8300000000000001
     22 N           3.9560    2.6443    1.3978 N.3     1  UNK1       -0.7999999999999998
     23 N          -4.4633   -3.2173    0.1693 N.2     2  GLY2       -0.5599999999999996
     24 N           4.1245   -3.3708   -1.0820 N.2     2  GLY2       -0.5099999999999998
     25 N          -4.4539    0.2581    0.5870 N.am    1  UNK1         -0.54
     26 N           4.8936   -0.1197    0.2102 N.am    1  UNK1       -0.5599999999999996
     27 O          -4.7405    0.1036    2.9041 O.2     1  UNK1       -0.6999999999999993
     28 O           5.2562    0.7885   -1.9303 O.2     1  UNK1       -0.6899999999999995
     29 OXT        -5.9927   -6.3993   -0.4560 O.2     2  GLY2       -0.5399999999999991
     30 O          -4.9212   -4.8672   -1.7040 O.3     2  GLY2       -0.6099999999999994
     31 O           4.6911   -6.0454   -0.2682 O.2     2  GLY2          -0.5
     32 OXT         3.0733   -5.9912    1.2619 O.3     2  GLY2       -0.6099999999999994
     33 O          -4.7752   -2.2764    2.2353 O.2     1  UNK1       -0.6699999999999999
     34 O           4.7196   -1.6646   -2.4011 O.2     1  UNK1       -0.6699999999999999
     35 O          -5.4220    5.6566   -0.4814 O.2     1  UNK1       -0.5399999999999991
     36 O          -4.1402    4.7753   -2.1020 O.3     1  UNK1       -0.6199999999999992
     37 O           3.8032    5.3670    0.7024 O.2     1  UNK1       -0.5199999999999996
     38 O           5.8404    5.6829    1.6045 O.3     1  UNK1       -0.5899999999999999
     39 S          -1.2141    0.5692    0.7992 S.3     1  UNK1       -0.010000000000001563
     40 S           1.1537   -1.3199   -1.1092 S.3     1  UNK1       -0.030000000000001137
     41 SE         -0.5734    0.0822   -1.2863 Se      1  UNK1       -0.03999999999999915
     42 H          -3.9104    3.3947    1.5871 H       1  UNK1       0.15000000000000002
     43 H          -5.4937    4.1594    1.4741 H       1  UNK1       0.15000000000000002
     44 H           5.4345    3.2934   -0.9648 H       1  UNK1       0.15000000000000002
     45 H           6.8862    3.7824   -0.0765 H       1  UNK1       0.15000000000000002
     46 H          -5.8013    2.2377    2.8523 H       1  UNK1          0.14
     47 H          -6.5731    1.8894    1.3081 H       1  UNK1       0.16000000000000003
     48 H           6.8249    1.3110    0.9015 H       1  UNK1          0.14
     49 H           7.3863    1.5789   -0.7636 H       1  UNK1       0.15000000000000002
     50 HA1        -6.1243   -4.1778    1.1139 H       2  GLY2       0.18999999999999995
     51 HA2        -4.5810   -4.9609    1.3934 H       2  GLY2       0.18999999999999995
     52 HA1         2.4417   -3.7947    0.1190 H       2  GLY2       0.18999999999999995
     53 HA2         3.8899   -3.4404    1.0529 H       2  GLY2       0.20999999999999996
     54 H          -1.7130   -1.7660    1.1861 H       1  UNK1       0.19999999999999996
     55 H          -2.4894   -0.6628    2.3505 H       1  UNK1       0.20999999999999996
     56 H           2.8605    0.3463   -1.6719 H       1  UNK1       0.19999999999999996
     57 H           2.2869    0.5078    0.0097 H       1  UNK1       0.20999999999999996
     58 H          -5.7611    2.8277   -0.7511 H       1  UNK1       0.18999999999999995
     59 H           5.8235    3.2633    2.0757 H       1  UNK1       0.17000000000000004
     60 H          -3.3910   -1.1224   -0.5337 H       1  UNK1       0.16000000000000003
     61 H           3.4595   -1.5099    0.6711 H       1  UNK1       0.16000000000000003
     62 H          -2.8749    2.7203   -0.4345 H       1  UNK1       0.33999999999999997
     63 H          -3.9220    1.5391   -0.7502 H       1  UNK1          0.37
     64 H           4.1786    1.6496    1.2864 H       1  UNK1       0.32999999999999996
     65 H           3.3023    2.8776    0.6505 H       1  UNK1       0.31999999999999995
     66 H          -4.5095   -3.9930   -1.4414 H       2  GLY2       0.43999999999999995
     67 HXT         2.4138   -5.3491    1.5753 H       2  GLY2       0.45999999999999996
     68 H          -4.7263   -1.2921    2.6384 H       1  UNK1       0.45999999999999996
     69 H           4.8811   -0.6593   -2.3409 H       1  UNK1       0.43999999999999995
     70 H          -3.7559    3.8509   -2.1832 H       1  UNK1       0.43999999999999995
     71 H           5.5329    6.5965    1.4550 H       1  UNK1       0.43999999999999995
@<TRIPOS>BOND
     1    34    69    1
     2    34    18    1
     3    70    36    1
     4    36    19    1
     5    28    14    2
     6    30    66    1
     7    30    15    1
     8    56     8    1
     9    41    40    1
    10    41    39    1
    11    18    24    2
    12    18    12    1
    13    40     8    1
    14    24     6    1
    15    21    63    1
    16    21    62    1
    17    21     9    1
    18    44     2    1
    19    19    35    2
    20    19     9    1
    21     8    12    1
    22     8    57    1
    23    49     4    1
    24    58     9    1
    25    14     4    1
    26    14    26   am
    27    15    29    2
    28    15     5    1
    29    60    11    1
    30     9     1    1
    31    31    16    2
    32    12    26    1
    33    12    61    1
    34     4     2    1
    35     4    48    1
    36    45     2    1
    37     2    10    1
    38     6    52    1
    39     6    16    1
    40     6    53    1
    41    23     5    1
    42    23    17    2
    43    16    32    1
    44    11    25    1
    45    11    17    1
    46    11     7    1
    47    25    13   am
    48     5    50    1
    49     5    51    1
    50    65    22    1
    51    37    20    2
    52    39     7    1
    53    17    33    1
    54    20    10    1
    55    20    38    1
    56     1    43    1
    57     1    42    1
    58     1     3    1
    59    54     7    1
    60    10    22    1
    61    10    59    1
    62    32    67    1
    63    64    22    1
    64     7    55    1
    65    47     3    1
    66    71    38    1
    67    13     3    1
    68    13    27    2
    69     3    46    1
    70    33    68    1
