@<TRIPOS>MOLECULE
GLCDBDRQLZKKOJ-LJAIZBFVSA-M	6044567	-1358.6242679679756
 79 82 0 0 0
SMALL
MULLIKEN NwChem

@<TRIPOS>ATOM
      1 C          -3.3107    4.6987   -0.8828 C.3     1  LIG1      -0.45999999999999996
      2 C          -2.6088    5.4093   -3.2009 C.3     1  LIG1      -0.45999999999999996
      3 C           2.4126    4.7732   -0.8269 C.3     1  LIG1      -0.4800000000000004
      4 C           3.9042    2.1619    0.2596 C.3     1  LIG1      -0.4800000000000004
      5 C          -1.6675   -1.2384   -0.1259 C.3     1  LIG1      -0.4800000000000004
      6 C          -0.4144   -5.6748    0.5419 C.3     1  LIG1      -0.4800000000000004
      7 C          -0.4525    5.4636    0.0950 C.3     1  LIG1      -0.28000000000000025
      8 C          -1.0713    5.8728   -1.2535 C.3     1  LIG1      -0.2599999999999998
      9 C           0.1704    4.0562    0.1355 C.3     1  LIG1      -0.29000000000000004
     10 C           1.8998   -2.2797   -0.8458 C.3     1  LIG1      -0.33999999999999986
     11 C           2.3137    1.8856   -2.3361 C.3     1  LIG1      -0.2999999999999998
     12 C           2.6443    0.3923   -2.1603 C.3     1  LIG1      -0.29000000000000004
     13 C           0.6812   -3.2026   -0.8574 C.3     1  LIG1      -0.2699999999999996
     14 C           0.5228    0.6146    1.3761 C.3     1  LIG1      -0.3700000000000001
     15 C          -2.0979   -2.8040    2.5496 C.3     1  LIG1      -0.28000000000000025
     16 C           1.8529    1.3626    1.4266 C.3     1  LIG1      -0.28000000000000025
     17 C          -1.0532   -1.7138    2.2800 C.3     1  LIG1      -0.2999999999999998
     18 C          -2.1229    4.9066   -1.8339 C.3     1  LIG1      -0.05999999999999961
     19 C           1.2479    3.7738   -0.9330 C.3     1  LIG1      -0.07000000000000028
     20 C           1.6517   -0.9234   -0.2146 C.2     1  LIG1      0.07000000000000028
     21 C           1.6336    2.2717   -1.0121 C.3     1  LIG1      -0.11000000000000032
     22 C           2.6880    0.1242   -0.6099 C.3     1  LIG1      -0.16000000000000014
     23 C           0.6247   -0.7034    0.6303 C.2     1  LIG1      0.07000000000000028
     24 C          -0.0263   -3.1637    0.5021 C.3     1  LIG1      -0.1299999999999999
     25 C          -1.5907   -4.2026    2.1961 C.3     1  LIG1       0.13999999999999968
     26 C          -2.2882   -4.2334   -0.3044 C.2     1  LIG1       0.5599999999999996
     27 C           2.5123    1.5305    0.0538 C.3     1  LIG1      0.09999999999999964
     28 C          -0.5295   -1.7141    0.8189 C.3     1  LIG1      0.05999999999999961
     29 C          -1.0773   -4.2962    0.7387 C.3     1  LIG1       -0.009999999999999787
     30 O          -0.5986   -4.6285    3.1669 O.3     1  LIG1      -0.7100000000000009
     31 O          -3.4426   -4.0923    0.1752 O.co2   1  LIG1      -0.6699999999999999
     32 O          -1.9460   -4.3464   -1.5062 O.co2   1  LIG1      -0.6699999999999999
     33 H          -3.7971    5.6575   -0.6553 H       1  LIG1          0.14
     34 H          -3.0027    4.2445    0.0654 H       1  LIG1       0.15000000000000002
     35 H          -4.0635    4.0409   -1.3337 H       1  LIG1          0.14
     36 H          -3.1134    6.3805   -3.1026 H       1  LIG1          0.14
     37 H          -1.7732    5.5369   -3.9010 H       1  LIG1          0.14
     38 H          -3.3214    4.7078   -3.6516 H       1  LIG1          0.14
     39 H           2.7920    4.8443    0.1985 H       1  LIG1       0.15000000000000002
     40 H           3.2497    4.4946   -1.4745 H       1  LIG1       0.15000000000000002
     41 H           2.0881    5.7776   -1.1231 H       1  LIG1       0.15000000000000002
     42 H           4.5240    1.4907    0.8663 H       1  LIG1          0.14
     43 H           4.4361    2.3332   -0.6824 H       1  LIG1       0.15000000000000002
     44 H           3.8446    3.1165    0.7899 H       1  LIG1       0.15000000000000002
     45 H          -1.3417   -1.2507   -1.1692 H       1  LIG1          0.14
     46 H          -2.5546   -1.8684   -0.0465 H       1  LIG1       0.15000000000000002
     47 H          -1.9505   -0.2073    0.1269 H       1  LIG1          0.14
     48 H           0.5429   -5.7608    1.0748 H       1  LIG1          0.13
     49 H          -1.0750   -6.4600    0.9303 H       1  LIG1          0.13
     50 H          -0.2614   -5.8610   -0.5231 H       1  LIG1       0.15000000000000002
     51 H           0.3051    6.2110    0.3684 H       1  LIG1          0.13
     52 H          -1.2196    5.5202    0.8792 H       1  LIG1          0.13
     53 H          -0.2705    6.0010   -1.9959 H       1  LIG1          0.14
     54 H          -1.5355    6.8649   -1.1398 H       1  LIG1          0.12
     55 H           0.5961    3.9011    1.1342 H       1  LIG1          0.14
     56 H          -0.6288    3.3116    0.0321 H       1  LIG1          0.14
     57 H           2.7205   -2.7545   -0.2779 H       1  LIG1          0.14
     58 H           2.2913   -2.1664   -1.8657 H       1  LIG1          0.14
     59 H           3.2224    2.4798   -2.4955 H       1  LIG1          0.14
     60 H           1.6614    2.0732   -3.1981 H       1  LIG1          0.13
     61 H           1.8538   -0.2097   -2.6176 H       1  LIG1          0.14
     62 H           3.5815    0.1115   -2.6527 H       1  LIG1          0.14
     63 H           1.0023   -4.2212   -1.0912 H       1  LIG1          0.12
     64 H          -0.0259   -2.9326   -1.6436 H       1  LIG1          0.14
     65 H           0.2020    0.4310    2.4059 H       1  LIG1       0.15000000000000002
     66 H          -0.2639    1.2474    0.9416 H       1  LIG1       0.15000000000000002
     67 H          -2.3733   -2.7873    3.6129 H       1  LIG1          0.12
     68 H          -3.0004   -2.6324    1.9591 H       1  LIG1          0.14
     69 H           1.7313    2.3365    1.9178 H       1  LIG1          0.13
     70 H           2.5433    0.7847    2.0587 H       1  LIG1          0.12
     71 H          -1.4921   -0.7389    2.5288 H       1  LIG1          0.14
     72 H          -0.1979   -1.8493    2.9624 H       1  LIG1          0.13
     73 H          -1.6430    3.9303   -1.9919 H       1  LIG1          0.13
     74 H           0.7722    3.9613   -1.9086 H       1  LIG1          0.13
     75 H           0.6764    1.7308   -1.0130 H       1  LIG1          0.12
     76 H           3.6789   -0.2767   -0.3473 H       1  LIG1          0.12
     77 H           0.7796   -3.3388    1.2474 H       1  LIG1       0.09999999999999998
     78 H          -2.4121   -4.9143    2.3066 H       1  LIG1       0.10999999999999999
     79 H           0.2181   -4.1519    2.9535 H       1  LIG1       0.42000000000000004
@<TRIPOS>BOND
     1    37     2    1
     2    38     2    1
     3     2    36    1
     4     2    18    1
     5    60    11    1
     6    62    12    1
     7    61    12    1
     8    59    11    1
     9    11    12    1
    10    11    21    1
    11    12    22    1
    12    53     8    1
    13    73    18    1
    14    74    19    1
    15    58    10    1
    16    18     8    1
    17    18     1    1
    18    64    13    1
    19    32    26   ar
    20    40     3    1
    21    35     1    1
    22     8    54    1
    23     8     7    1
    24    45     5    1
    25    41     3    1
    26    63    13    1
    27    75    21    1
    28    21    19    1
    29    21    27    1
    30    19     3    1
    31    19     9    1
    32     1    33    1
    33     1    34    1
    34    13    10    1
    35    13    24    1
    36    10    57    1
    37    10    20    1
    38     3    39    1
    39    43     4    1
    40    22    76    1
    41    22    20    1
    42    22    27    1
    43    50     6    1
    44    26    31   ar
    45    26    29    1
    46    20    23    2
    47     5    46    1
    48     5    47    1
    49     5    28    1
    50    56     9    1
    51    27     4    1
    52    27    16    1
    53     7     9    1
    54     7    51    1
    55     7    52    1
    56     9    55    1
    57     4    44    1
    58     4    42    1
    59    24    29    1
    60    24    28    1
    61    24    77    1
    62     6    29    1
    63     6    49    1
    64     6    48    1
    65    23    28    1
    66    23    14    1
    67    29    25    1
    68    28    17    1
    69    66    14    1
    70    14    16    1
    71    14    65    1
    72    16    69    1
    73    16    70    1
    74    68    15    1
    75    25    78    1
    76    25    15    1
    77    25    30    1
    78    17    71    1
    79    17    15    1
    80    17    72    1
    81    15    67    1
    82    79    30    1
