@<TRIPOS>MOLECULE
GLOXZZHEZYKXNV-WJOKGBTCSA-L	11095402	-2238.1821995440696
 105 104 0 0 0
SMALL
MULLIKEN NwChem

@<TRIPOS>ATOM
      1 C         -15.4303   -0.1626   -2.4915 C.3     1  LIG1      -0.45999999999999996
      2 C          14.9933   -1.2400   -0.0813 C.3     1  LIG1      -0.45999999999999996
      3 C         -14.5133   -1.3887   -2.4368 C.3     1  LIG1        -0.25
      4 C          13.9954   -2.3991    0.0232 C.3     1  LIG1        -0.25
      5 C         -13.1862   -1.1138   -1.7196 C.3     1  LIG1        -0.25
      6 C          12.7339   -2.0644    0.8385 C.3     1  LIG1      -0.2599999999999998
      7 C         -12.2684   -2.3421   -1.6541 C.3     1  LIG1      -0.2599999999999998
      8 C          11.9088   -0.8739    0.3209 C.3     1  LIG1      -0.2599999999999998
      9 C         -10.8961   -2.0743   -1.0172 C.3     1  LIG1      -0.2699999999999996
     10 C          11.4010   -1.0283   -1.1183 C.3     1  LIG1      -0.2599999999999998
     11 C         -10.9463   -1.7561    0.4859 C.3     1  LIG1      -0.2599999999999998
     12 C          10.4913    0.1241   -1.5581 C.3     1  LIG1      -0.2599999999999998
     13 C          -9.5674   -1.4505    1.1133 C.3     1  LIG1      -0.2699999999999996
     14 C          10.0255    0.0067   -3.0161 C.3     1  LIG1      -0.2599999999999998
     15 C          -9.2090    0.0431    1.2058 C.3     1  LIG1      -0.2599999999999998
     16 C          -9.1698    0.7900   -0.1333 C.3     1  LIG1      -0.2599999999999998
     17 C           9.0376    1.1096   -3.4580 C.3     1  LIG1      -0.2599999999999998
     18 C          -8.7713    2.2716   -0.0128 C.3     1  LIG1      -0.2599999999999998
     19 C          -7.3839    2.5461    0.5940 C.3     1  LIG1      -0.2599999999999998
     20 C           7.5487    0.7481   -3.3045 C.3     1  LIG1      -0.2599999999999998
     21 C          -6.2218    1.8817   -0.1573 C.3     1  LIG1      -0.2599999999999998
     22 C           7.0766    0.4020   -1.8865 C.3     1  LIG1      -0.2599999999999998
     23 C          -4.8310    2.2053    0.4097 C.3     1  LIG1      -0.2699999999999996
     24 C           5.5632    0.1706   -1.7872 C.3     1  LIG1        -0.25
     25 C          -4.4108    3.6741    0.2603 C.3     1  LIG1      -0.2599999999999998
     26 C           5.0731   -0.1872   -0.3663 C.3     1  LIG1      -0.2599999999999998
     27 C          -2.9798    3.9310    0.7409 C.3     1  LIG1       -0.3700000000000001
     28 C           3.5783   -0.3286   -0.2517 C.3     1  LIG1       -0.3600000000000003
     29 C           0.4228    2.7087   -0.2233 C.3     1  LIG1       -0.08000000000000007
     30 C           0.9874    1.3146    1.8247 C.3     1  LIG1       -0.04999999999999982
     31 C           0.5566    1.2884    0.3554 C.3     1  LIG1       0.11000000000000032
     32 C          -1.9224    3.2932   -0.1595 C.2     1  LIG1       0.6399999999999997
     33 C           2.7875    0.7903   -0.4282 C.2     1  LIG1       0.5499999999999998
     34 O          -2.1727    2.7975   -1.2457 O.2     1  LIG1      -0.5399999999999991
     35 O           3.1309    1.9937   -0.5676 O.2     1  LIG1      -0.6999999999999993
     36 O           3.3558   -0.1433    2.9190 O.3     1  LIG1      -0.7699999999999996
     37 O           1.7422    0.6461    4.7335 O.3     1  LIG1      -0.7200000000000006
     38 O           1.6271   -1.8540    3.8934 O.2     1  LIG1      -0.6899999999999995
     39 O          -0.7240    3.3889    0.4053 O.3     1  LIG1      -0.47000000000000064
     40 O           0.8766    0.0118    2.3543 O.3     1  LIG1      -0.5999999999999996
     41 O           1.3825    0.4828   -0.4659 O.3     1  LIG1      -0.5600000000000005
     42 P           1.8865   -0.3923    3.6508 P.3     1  LIG1       1.0199999999999996
     43 H         -16.3714   -0.3838   -3.0091 H       1  LIG1          0.14
     44 H         -15.6775    0.1889   -1.4820 H       1  LIG1       0.15000000000000002
     45 H         -14.9451    0.6680   -3.0189 H       1  LIG1          0.14
     46 H          14.5678   -0.3937   -0.6321 H       1  LIG1       0.15000000000000002
     47 H          15.2788   -0.8758    0.9142 H       1  LIG1          0.14
     48 H          15.9087   -1.5473   -0.6019 H       1  LIG1          0.14
     49 H         -15.0332   -2.2150   -1.9305 H       1  LIG1          0.13
     50 H         -14.3069   -1.7402   -3.4581 H       1  LIG1          0.13
     51 H          14.4929   -3.2628    0.4867 H       1  LIG1          0.13
     52 H          13.7083   -2.7217   -0.9863 H       1  LIG1          0.14
     53 H         -12.6585   -0.2957   -2.2328 H       1  LIG1          0.13
     54 H         -13.3985   -0.7486   -0.7056 H       1  LIG1          0.14
     55 H          12.0895   -2.9543    0.8688 H       1  LIG1          0.13
     56 H          13.0297   -1.8648    1.8791 H       1  LIG1          0.13
     57 H         -12.7784   -3.1456   -1.1006 H       1  LIG1          0.13
     58 H         -12.1202   -2.7227   -2.6752 H       1  LIG1          0.13
     59 H          12.4986    0.0508    0.3979 H       1  LIG1          0.13
     60 H          11.0469   -0.7336    0.9869 H       1  LIG1          0.13
     61 H         -10.2578   -2.9575   -1.1595 H       1  LIG1          0.13
     62 H         -10.4017   -1.2576   -1.5577 H       1  LIG1          0.14
     63 H          12.2530   -1.1006   -1.8114 H       1  LIG1          0.14
     64 H          10.8524   -1.9779   -1.2094 H       1  LIG1          0.13
     65 H         -11.4035   -2.6164    0.9957 H       1  LIG1          0.13
     66 H         -11.6183   -0.9065    0.6709 H       1  LIG1          0.14
     67 H           9.6221    0.1743   -0.8932 H       1  LIG1          0.14
     68 H          11.0273    1.0777   -1.4315 H       1  LIG1          0.13
     69 H          -9.5312   -1.8671    2.1282 H       1  LIG1          0.13
     70 H          -8.7850   -1.9758    0.5469 H       1  LIG1          0.13
     71 H           9.5595   -0.9779   -3.1696 H       1  LIG1          0.13
     72 H          10.9176    0.0224   -3.6611 H       1  LIG1          0.13
     73 H          -8.2324    0.1290    1.6979 H       1  LIG1          0.14
     74 H          -9.9309    0.5437    1.8702 H       1  LIG1          0.13
     75 H          -8.4808    0.2738   -0.8151 H       1  LIG1          0.13
     76 H         -10.1601    0.7402   -0.6063 H       1  LIG1          0.14
     77 H           9.2254    1.3576   -4.5133 H       1  LIG1          0.13
     78 H           9.2501    2.0285   -2.8908 H       1  LIG1          0.13
     79 H          -9.5327    2.7927    0.5875 H       1  LIG1          0.13
     80 H          -8.8112    2.7225   -1.0152 H       1  LIG1          0.13
     81 H          -7.3620    2.2235    1.6445 H       1  LIG1          0.13
     82 H          -7.2338    3.6332    0.6146 H       1  LIG1          0.14
     83 H           7.3237   -0.1003   -3.9702 H       1  LIG1          0.13
     84 H           6.9464    1.5892   -3.6772 H       1  LIG1          0.12
     85 H          -6.3577    0.7917   -0.1413 H       1  LIG1          0.14
     86 H          -6.2593    2.1781   -1.2170 H       1  LIG1          0.13
     87 H           7.3626    1.2127   -1.1981 H       1  LIG1          0.12
     88 H           7.6017   -0.4992   -1.5323 H       1  LIG1          0.13
     89 H          -4.7963    1.9218    1.4723 H       1  LIG1          0.13
     90 H          -4.0877    1.5877   -0.1043 H       1  LIG1          0.14
     91 H           5.0271    1.0792   -2.0897 H       1  LIG1          0.12
     92 H           5.2675   -0.6263   -2.4882 H       1  LIG1       0.10999999999999999
     93 H          -5.0949    4.3255    0.8212 H       1  LIG1       0.15000000000000002
     94 H          -4.4834    3.9589   -0.7974 H       1  LIG1          0.14
     95 H           5.5752   -1.1119   -0.0366 H       1  LIG1       0.10999999999999999
     96 H           5.4272    0.6110    0.3073 H       1  LIG1       0.09999999999999998
     97 H          -2.8254    3.5555    1.7597 H       1  LIG1       0.18000000000000005
     98 H          -2.7676    5.0082    0.7830 H       1  LIG1       0.18999999999999995
     99 H           3.3099   -0.3482    1.9553 H       1  LIG1       0.42000000000000004
    100 H           3.1174   -1.3106   -0.2343 H       1  LIG1       0.07999999999999996
    101 H           1.2900    3.3198    0.0117 H       1  LIG1       0.18000000000000005
    102 H           0.2714    2.6639   -1.3020 H       1  LIG1       0.17000000000000004
    103 H           0.3425    2.0225    2.3734 H       1  LIG1          0.14
    104 H           2.0160    1.6919    1.8817 H       1  LIG1          0.14
    105 H          -0.4361    0.8184    0.3007 H       1  LIG1           0.14
@<TRIPOS>BOND
     1    77    17    1
     2    83    20    1
     3    84    20    1
     4    72    14    1
     5    50     3    1
     6    17    20    1
     7    17    14    1
     8    17    78    1
     9    20    22    1
    10    71    14    1
    11    45     1    1
    12    14    12    1
    13    43     1    1
    14    58     7    1
    15     1     3    1
    16     1    44    1
    17    92    24    1
    18     3    49    1
    19     3     5    1
    20    53     5    1
    21    91    24    1
    22    22    24    1
    23    22    88    1
    24    22    87    1
    25    63    10    1
    26    24    26    1
    27     5     7    1
    28     5    54    1
    29     7    57    1
    30     7     9    1
    31    12    68    1
    32    12    10    1
    33    12    67    1
    34    62     9    1
    35   102    29    1
    36    34    32    2
    37    86    21    1
    38    64    10    1
    39    61     9    1
    40    10     8    1
    41     9    11    1
    42    80    18    1
    43    52     4    1
    44    75    16    1
    45    94    25    1
    46    46     2    1
    47    76    16    1
    48    48     2    1
    49    35    33    2
    50    41    33    1
    51    41    31    1
    52    33    28    1
    53    26    28    1
    54    26    95    1
    55    26    96    1
    56    28   100    1
    57    29   101    1
    58    29    31    1
    59    29    39    1
    60    32    39    1
    61    32    27    1
    62    21    85    1
    63    21    23    1
    64    21    19    1
    65    16    18    1
    66    16    15    1
    67    90    23    1
    68     2     4    1
    69     2    47    1
    70    18    79    1
    71    18    19    1
    72     4    51    1
    73     4     6    1
    74    25    23    1
    75    25    27    1
    76    25    93    1
    77   105    31    1
    78     8    59    1
    79     8     6    1
    80     8    60    1
    81    31    30    1
    82    23    89    1
    83    11    66    1
    84    11    65    1
    85    11    13    1
    86    70    13    1
    87    19    82    1
    88    19    81    1
    89    27    98    1
    90    27    97    1
    91     6    55    1
    92     6    56    1
    93    13    15    1
    94    13    69    1
    95    15    73    1
    96    15    74    1
    97    30   104    1
    98    30    40    1
    99    30   103    1
   100    99    36    1
   101    40    42    1
   102    36    42    1
   103    42    38    2
   104    42    37    1
