@<TRIPOS>MOLECULE
GNGACRATGGDKBX-UHFFFAOYSA-L	6044571	-910.3057059866766
 15 14 0 0 0
SMALL
MULLIKEN NwChem

@<TRIPOS>ATOM
      1 C           2.0096   -0.5239   -0.1429 C.3     1  LIG1       -0.1200000000000001
      2 C           0.3410    1.4349   -0.4130 C.3     1  LIG1       -0.08999999999999986
      3 C           1.7798    0.9888   -0.1272 C.2     1  LIG1       0.4299999999999997
      4 O           1.6953   -1.0518   -1.4180 O.3     1  LIG1      -0.7300000000000004
      5 O           2.6867    1.7909    0.1008 O.2     1  LIG1      -0.5199999999999996
      6 O          -0.8682   -0.9393   -1.3273 O.2     1  LIG1      -0.8000000000000007
      7 O          -0.8429   -1.6004    1.1831 O.3     1  LIG1      -0.7599999999999998
      8 O          -2.8632   -0.2613    0.1903 O.3     1  LIG1      -0.7400000000000002
      9 O          -0.5409    0.8756    0.5118 O.3     1  LIG1      -0.6600000000000001
     10 P          -1.3950   -0.6520    0.1190 P.3     1  LIG1       1.0099999999999998
     11 H           1.3874   -0.9811    0.6458 H       1  LIG1       0.16000000000000003
     12 H           3.0772   -0.6959    0.0756 H       1  LIG1          0.13
     13 H           0.3340    2.5399   -0.3417 H       1  LIG1          0.13
     14 H           0.0913    1.1425   -1.4464 H       1  LIG1       0.15000000000000002
     15 H           0.6549   -1.1046   -1.4220 H       1  LIG1       0.43000000000000005
@<TRIPOS>BOND
     1    14     2    1
     2    15     4    1
     3     4     1    1
     4     6    10    2
     5     2    13    1
     6     2     3    1
     7     2     9    1
     8     1     3    1
     9     1    12    1
    10     1    11    1
    11     3     5    2
    12    10     8    1
    13    10     9    1
    14    10     7    1
