@<TRIPOS>MOLECULE
GNISQJGXJIDKDJ-YFKPBYRVSA-M	6044572	-818.1937994085489
 27 26 0 0 0
SMALL
MULLIKEN NwChem

@<TRIPOS>ATOM
      1 C           0.2938    2.6153    1.6655 C.3     1  LIG1       -0.3700000000000001
      2 C          -0.1131    2.8440    0.2069 C.3     1  LIG1       -0.34999999999999964
      3 C           1.3100   -1.2791   -0.2204 C.3     1  LIG1       -0.2699999999999996
      4 C           1.7398   -0.1012   -1.1001 C.3     1  LIG1       -0.08000000000000007
      5 CA         -0.1622   -1.7207   -0.3795 C.3     1  LIG1       -0.04999999999999982
      6 C          -0.3338    1.3273    2.2882 C.2     1  LIG1       0.5499999999999998
      7 C           0.1781    1.6765   -0.7133 C.2     1  LIG1       0.6699999999999999
      8 C          -0.3833   -2.6914   -1.5201 C.2     1  LIG1       0.5999999999999996
      9 N          -0.6312   -2.3151    0.8755 N.3     1  LIG1      -0.8099999999999996
     10 O          -0.3010    1.2350    3.5279 O.co2   1  LIG1      -0.6600000000000001
     11 O          -0.7833    0.4965    1.4340 O.co2   1  LIG1      -0.6199999999999992
     12 O          -0.5227    1.3305   -1.6461 O.2     1  LIG1      -0.5600000000000005
     13 OXT        -1.2427   -3.5493   -1.5728 O.2     1  LIG1      -0.5199999999999996
     14 O           0.4589   -2.4876   -2.5768 O.3     1  LIG1      -0.5899999999999999
     15 O           1.4064    1.1491   -0.4655 O.3     1  LIG1      -0.47000000000000064
     16 H           0.0169    3.4810    2.2798 H       1  LIG1          0.14
     17 H           1.3843    2.5167    1.7349 H       1  LIG1       0.16000000000000003
     18 H          -1.1876    3.0275    0.1220 H       1  LIG1       0.16000000000000003
     19 H           0.4051    3.7232   -0.2102 H       1  LIG1       0.17000000000000004
     20 H           1.9763   -2.1339   -0.3931 H       1  LIG1       0.16000000000000003
     21 H           1.4304   -0.9694    0.8206 H       1  LIG1       0.16000000000000003
     22 H           1.2924   -0.1435   -2.0958 H       1  LIG1       0.17000000000000004
     23 H           2.8302   -0.0760   -1.1976 H       1  LIG1       0.16000000000000003
     24 HA         -0.7445   -0.8290   -0.6620 H       1  LIG1       0.18999999999999995
     25 H1         -0.7924   -1.4988    1.4826 H       1  LIG1       0.31999999999999995
     26 H2         -1.5456   -2.7313    0.6987 H       1  LIG1       0.31000000000000005
     27 H           0.1607   -3.1181   -3.2581 H       1  LIG1       0.43999999999999995
@<TRIPOS>BOND
     1    27    14    1
     2    14     8    1
     3    22     4    1
     4    12     7    2
     5    13     8    2
     6     8     5    1
     7    23     4    1
     8     4    15    1
     9     4     3    1
    10     7    15    1
    11     7     2    1
    12    24     5    1
    13    20     3    1
    14     5     3    1
    15     5     9    1
    16     3    21    1
    17    19     2    1
    18    18     2    1
    19     2     1    1
    20    26     9    1
    21     9    25    1
    22    11     6   ar
    23     1    17    1
    24     1    16    1
    25     1     6    1
    26     6    10   ar
