@<TRIPOS>MOLECULE
GRSZFWQUAKGDAV-KQYNXXCUSA-L	6044574	-1550.024566304413
 34 36 0 0 0
SMALL
MULLIKEN NwChem

@<TRIPOS>ATOM
      1 C           0.5932    3.5510   -0.6030 C.3     1  LIG1       -0.07000000000000028
      2 C          -1.6845   -3.8588   -1.1627 C.ar    1  LIG1       0.15000000000000036
      3 C           1.4783   -1.2191    0.2974 C.ar    1  LIG1       0.1900000000000004
      4 C           0.0291    2.3965   -1.4276 C.3     1  LIG1       0.1299999999999999
      5 C           0.5918   -3.1701    0.0674 C.ar    1  LIG1       0.11000000000000032
      6 C          -1.4794    2.1028   -1.2136 C.3     1  LIG1       0.08000000000000007
      7 C          -1.4773    0.6869   -0.5852 C.3     1  LIG1       0.08000000000000007
      8 C          -0.2332   -2.2818   -0.6160 C.ar    1  LIG1       0.5300000000000002
      9 C           0.2113   -4.5769    0.0836 C.ar    1  LIG1       0.46999999999999975
     10 C          -0.1702    0.1269   -1.1667 C.3     1  LIG1       0.28000000000000025
     11 N          -1.4052   -2.5385   -1.2466 N.ar    1  LIG1      -0.6200000000000001
     12 N          -1.0028   -4.8394   -0.5979 N.ar    1  LIG1      -0.5800000000000001
     13 N           1.6610   -2.4760    0.6356 N.ar    1  LIG1      -0.5899999999999999
     14 N           0.3491   -1.0382   -0.4877 N.ar    1  LIG1      -0.5199999999999996
     15 O          -2.1682    2.0640   -2.4637 O.3     1  LIG1      -0.7100000000000009
     16 O          -2.6284   -0.0348   -1.0127 O.3     1  LIG1      -0.7200000000000006
     17 O           0.8502   -5.4925    0.6263 O.2     1  LIG1      -0.6600000000000001
     18 O           2.4049    2.6615    1.5458 O.2     1  LIG1      -0.7200000000000006
     19 O           0.7051    3.6895    3.1757 O.3     1  LIG1      -0.7200000000000006
     20 O           0.1283    1.4128    2.1546 O.3     1  LIG1      -0.6799999999999997
     21 O           0.1313    3.5813    0.7287 O.3     1  LIG1      -0.5800000000000001
     22 O           0.7503    1.1889   -1.1098 O.3     1  LIG1      -0.5399999999999991
     23 P           0.9372    2.6430    1.8899 P.3     1  LIG1          1.08
     24 H           0.2603    4.4867   -1.0819 H       1  LIG1       0.16000000000000003
     25 H           1.6907    3.5079   -0.6360 H       1  LIG1       0.15000000000000002
     26 H          -2.6268   -4.1478   -1.6434 H       1  LIG1          0.14
     27 H           2.0743   -0.3677    0.5921 H       1  LIG1       0.18999999999999995
     28 H           0.1768    2.6213   -2.4970 H       1  LIG1       0.16000000000000003
     29 H          -1.9327    2.8488   -0.5504 H       1  LIG1       0.15000000000000002
     30 H          -1.3800    0.7472    0.5029 H       1  LIG1       0.18000000000000005
     31 H          -0.3637   -0.1679   -2.2147 H       1  LIG1       0.17000000000000004
     32 H          -2.6760    1.2245   -2.3905 H       1  LIG1       0.42000000000000004
     33 H          -2.3552   -0.9874   -1.1569 H       1  LIG1       0.43999999999999995
     34 H           1.4690    4.2882    3.1301 H       1  LIG1       0.43999999999999995
@<TRIPOS>BOND
     1    28     4    1
     2    15    32    1
     3    15     6    1
     4    31    10    1
     5    26     2    1
     6     4     6    1
     7     4    22    1
     8     4     1    1
     9    11     2   ar
    10    11     8   ar
    11     6     7    1
    12     6    29    1
    13    10    22    1
    14    10     7    1
    15    10    14    1
    16     2    12   ar
    17    33    16    1
    18    24     1    1
    19    16     7    1
    20    25     1    1
    21     8    14   ar
    22     8     5   ar
    23     1    21    1
    24    12     9   ar
    25     7    30    1
    26    14     3   ar
    27     5     9   ar
    28     5    13   ar
    29     9    17    2
    30     3    27    1
    31     3    13   ar
    32    21    23    1
    33    18    23    2
    34    23    20    1
    35    23    19    1
    36    34    19    1
