@<TRIPOS>MOLECULE
GRUGZHAOXOPASC-UHFFFAOYSA-M	6044575	-897.2408618379773
 22 21 0 0 0
SMALL
MULLIKEN NwChem

@<TRIPOS>ATOM
      1 C          -1.0073   -2.8364    1.4652 C.3     1  LIG1      -0.5999999999999996
      2 C          -0.9886    0.6297    0.6449 C.3     1  LIG1      -0.2699999999999996
      3 C          -1.3890    0.0829   -0.7331 C.3     1  LIG1      -0.2599999999999998
      4 C           0.5006    0.4235    1.0042 C.3     1  LIG1       -0.3600000000000003
      5 C          -1.0572   -1.3863   -1.0095 C.3     1  LIG1      -0.41999999999999993
      6 C           1.4351    0.8191   -0.1457 C.2     1  LIG1       0.3899999999999997
      7 C           1.4808    2.3248   -0.4608 C.2     1  LIG1       0.4800000000000004
      8 O           2.0287   -0.0556   -0.7738 O.2     1  LIG1      -0.5399999999999991
      9 O           0.5102    2.6960   -1.1751 O.co2   1  LIG1      -0.6300000000000008
     10 O           2.4115    2.9690    0.0662 O.co2   1  LIG1      -0.6500000000000004
     11 S          -2.0186   -2.6437   -0.0479 S.3     1  LIG1      -0.010000000000001563
     12 H          -1.4070   -3.6981    2.0096 H       1  LIG1       0.18999999999999995
     13 H          -1.0571   -1.9546    2.1085 H       1  LIG1       0.19999999999999996
     14 H           0.0377   -3.0343    1.2077 H       1  LIG1       0.19999999999999996
     15 H          -1.1870    1.7060    0.6288 H       1  LIG1       0.15000000000000002
     16 H          -1.6183    0.1867    1.4306 H       1  LIG1       0.15000000000000002
     17 H          -0.8636    0.6976   -1.4758 H       1  LIG1       0.15000000000000002
     18 H          -2.4659    0.2410   -0.8832 H       1  LIG1          0.14
     19 H           0.7429    1.0381    1.8818 H       1  LIG1       0.16000000000000003
     20 H           0.7124   -0.6231    1.2511 H       1  LIG1       0.16000000000000003
     21 H           0.0116   -1.5797   -0.8722 H       1  LIG1       0.18000000000000005
     22 H          -1.2921   -1.6236   -2.0537 H       1  LIG1       0.18000000000000005
@<TRIPOS>BOND
     1    22     5    1
     2    17     3    1
     3     9     7   ar
     4     5    21    1
     5     5     3    1
     6     5    11    1
     7    18     3    1
     8     8     6    2
     9     3     2    1
    10     7     6    1
    11     7    10   ar
    12     6     4    1
    13    11     1    1
    14    15     2    1
    15     2     4    1
    16     2    16    1
    17     4    20    1
    18     4    19    1
    19    14     1    1
    20     1    12    1
    21     1    13    1
