@<TRIPOS>MOLECULE
GTCKEWVHTGGUSN-HGWHEPCSSA-M	6044576	-2662.886677182669
 127 126 0 0 0
SMALL
MULLIKEN NwChem

@<TRIPOS>ATOM
      1 C          13.6530   -7.5752    0.1527 C.3     1  LIG1      -0.45999999999999996
      2 C         -10.4874    8.2088    8.2527 C.3     1  LIG1      -0.45999999999999996
      3 C          12.8778   -6.6871   -0.8278 C.3     1  LIG1      -0.2599999999999998
      4 C          -8.9805    7.9739    8.0964 C.3     1  LIG1      -0.2599999999999998
      5 C          11.6375   -7.3644   -1.4353 C.3     1  LIG1      -0.2599999999999998
      6 C          -8.5716    6.4916    8.1304 C.3     1  LIG1      -0.2599999999999998
      7 C          10.5810   -7.8280   -0.4162 C.3     1  LIG1      -0.2699999999999996
      8 C          -9.2130    5.6134    7.0410 C.3     1  LIG1      -0.2699999999999996
      9 C          10.0555   -6.7266    0.5213 C.3     1  LIG1      -0.2699999999999996
     10 C          -8.9710    6.0835    5.5957 C.3     1  LIG1      -0.2699999999999996
     11 C           9.4589   -5.4999   -0.1902 C.3     1  LIG1      -0.2699999999999996
     12 C          -7.4928    6.2187    5.1901 C.3     1  LIG1      -0.2699999999999996
     13 C           8.2851   -5.8002   -1.1371 C.3     1  LIG1      -0.2599999999999998
     14 C          -6.6545    4.9354    5.3361 C.3     1  LIG1      -0.2699999999999996
     15 C           7.0586   -6.4495   -0.4556 C.3     1  LIG1      -0.3099999999999996
     16 C          -7.1856    3.7153    4.5625 C.3     1  LIG1      -0.2699999999999996
     17 C           6.5270   -5.6375    0.7007 C.2     1  LIG1      -0.1299999999999999
     18 C           5.5428   -4.7310    0.6532 C.2     1  LIG1      -0.1200000000000001
     19 C          -7.4011    3.9432    3.0566 C.3     1  LIG1      -0.2699999999999996
     20 C           4.7115   -4.3568   -0.5463 C.3     1  LIG1      -0.3200000000000003
     21 C           3.2694   -4.9111   -0.4883 C.3     1  LIG1      -0.2599999999999998
     22 C          -6.1524    4.3892    2.2764 C.3     1  LIG1      -0.2699999999999996
     23 C           2.4697   -4.5045    0.7615 C.3     1  LIG1      -0.2699999999999996
     24 C          -4.9815    3.3888    2.2772 C.3     1  LIG1      -0.2699999999999996
     25 C           2.3478   -2.9861    0.9890 C.3     1  LIG1      -0.2699999999999996
     26 C          -5.3038    1.9936    1.7089 C.3     1  LIG1      -0.28000000000000025
     27 C           1.7184   -2.1981   -0.1728 C.3     1  LIG1      -0.2599999999999998
     28 C          -5.9471    1.9873    0.3109 C.3     1  LIG1      -0.2699999999999996
     29 C           0.2445   -2.5355   -0.4608 C.3     1  LIG1      -0.2699999999999996
     30 C          -5.1648    2.7370   -0.7808 C.3     1  LIG1      -0.2599999999999998
     31 C          -0.7591   -1.9060    0.5206 C.3     1  LIG1       -0.3799999999999999
     32 C          -3.7498    2.2076   -1.0552 C.3     1  LIG1       -0.41999999999999993
     33 C           1.6893   -1.1809   -4.5511 C.3     1  LIG1       -0.04999999999999982
     34 C           2.3676    1.1756   -5.2607 C.3     1  LIG1       -0.08000000000000007
     35 C          -0.5915    1.3900   -1.2033 C.3     1  LIG1       -0.1200000000000001
     36 C          -1.4773    2.3562   -3.4263 C.3     1  LIG1       -0.07000000000000028
     37 C           1.5282   -0.0638   -5.5930 C.3     1  LIG1       0.08000000000000007
     38 C          -1.3377    1.1220   -2.5055 C.3     1  LIG1       0.08999999999999986
     39 C          -1.0866   -0.4371    0.2816 C.2     1  LIG1       0.6399999999999997
     40 C          -3.7401    0.8694   -1.7802 C.2     1  LIG1       0.6200000000000001
     41 O           1.2731   -0.8255   -3.2432 O.3     1  LIG1      -0.6600000000000001
     42 O           1.8868   -0.5705   -6.8845 O.3     1  LIG1      -0.6699999999999999
     43 O          -1.9981    0.1466    0.8400 O.2     1  LIG1      -0.5299999999999994
     44 O          -4.7283    0.1724   -1.8828 O.2     1  LIG1      -0.5099999999999998
     45 O           1.4170    3.9517   -5.2130 O.2     1  LIG1      -0.6699999999999999
     46 O           0.9727    3.6014   -2.6043 O.3     1  LIG1      -0.6899999999999995
     47 O          -0.2537    0.1166   -0.6102 O.3     1  LIG1      -0.4499999999999993
     48 O           1.9911    1.7381   -4.0038 O.3     1  LIG1      -0.6099999999999994
     49 O          -0.4457    2.3942   -4.3937 O.3     1  LIG1      -0.6099999999999994
     50 O          -2.5852    0.3948   -2.3049 O.3     1  LIG1         -0.5
     51 P           1.0224    3.1335   -4.0286 P.3     1  LIG1       1.1799999999999997
     52 H          13.0537   -7.8171    1.0377 H       1  LIG1       0.15000000000000002
     53 H          14.5669   -7.0791    0.4988 H       1  LIG1          0.14
     54 H          13.9435   -8.5224   -0.3192 H       1  LIG1          0.14
     55 H         -10.8685    7.7309    9.1643 H       1  LIG1          0.14
     56 H         -10.7167    9.2789    8.3149 H       1  LIG1          0.14
     57 H         -11.0508    7.7997    7.4070 H       1  LIG1       0.15000000000000002
     58 H          12.5807   -5.7603   -0.3203 H       1  LIG1          0.14
     59 H          13.5461   -6.3817   -1.6444 H       1  LIG1          0.13
     60 H          -8.4484    8.5020    8.8998 H       1  LIG1          0.13
     61 H          -8.6376    8.4300    7.1588 H       1  LIG1          0.14
     62 H          11.1738   -6.6730   -2.1517 H       1  LIG1          0.14
     63 H          11.9611   -8.2358   -2.0229 H       1  LIG1          0.13
     64 H          -8.8341    6.0741    9.1136 H       1  LIG1          0.13
     65 H          -7.4781    6.4253    8.0550 H       1  LIG1          0.14
     66 H           9.7393   -8.2703   -0.9661 H       1  LIG1          0.14
     67 H          10.9951   -8.6411    0.1953 H       1  LIG1          0.13
     68 H         -10.2962    5.5574    7.2130 H       1  LIG1          0.13
     69 H          -8.8395    4.5873    7.1582 H       1  LIG1          0.14
     70 H           9.3015   -7.1668    1.1877 H       1  LIG1          0.14
     71 H          10.8683   -6.3884    1.1783 H       1  LIG1          0.14
     72 H          -9.4674    7.0516    5.4405 H       1  LIG1          0.13
     73 H          -9.4717    5.3820    4.9156 H       1  LIG1          0.14
     74 H           9.1246   -4.7813    0.5692 H       1  LIG1          0.13
     75 H          10.2466   -4.9901   -0.7599 H       1  LIG1          0.14
     76 H          -7.0220    7.0134    5.7848 H       1  LIG1          0.13
     77 H          -7.4497    6.5637    4.1486 H       1  LIG1          0.14
     78 H           7.9639   -4.8584   -1.6001 H       1  LIG1          0.13
     79 H           8.6222   -6.4505   -1.9564 H       1  LIG1          0.14
     80 H          -6.5788    4.6687    6.3994 H       1  LIG1          0.13
     81 H          -5.6287    5.1540    5.0114 H       1  LIG1          0.13
     82 H           6.2794   -6.6028   -1.2104 H       1  LIG1       0.15000000000000002
     83 H           7.3325   -7.4499   -0.0943 H       1  LIG1       0.15000000000000002
     84 H          -8.1368    3.3899    5.0063 H       1  LIG1          0.13
     85 H          -6.4876    2.8807    4.7087 H       1  LIG1          0.13
     86 H           7.0334   -5.7913    1.6540 H       1  LIG1          0.13
     87 H           5.2843   -4.2140    1.5776 H       1  LIG1          0.13
     88 H          -8.1895    4.6955    2.9163 H       1  LIG1          0.14
     89 H          -7.7920    3.0168    2.6167 H       1  LIG1          0.14
     90 H           4.6674   -3.2619   -0.6217 H       1  LIG1       0.15000000000000002
     91 H           5.1866   -4.7044   -1.4710 H       1  LIG1       0.15000000000000002
     92 H           2.7371   -4.5793   -1.3881 H       1  LIG1          0.14
     93 H           3.3156   -6.0076   -0.5377 H       1  LIG1          0.13
     94 H          -5.7965    5.3487    2.6758 H       1  LIG1          0.14
     95 H          -6.4511    4.5954    1.2404 H       1  LIG1          0.14
     96 H           1.4674   -4.9457    0.6853 H       1  LIG1          0.14
     97 H           2.9294   -4.9627    1.6477 H       1  LIG1          0.13
     98 H          -4.5993    3.2722    3.3008 H       1  LIG1          0.14
     99 H          -4.1544    3.8286    1.7040 H       1  LIG1          0.14
    100 H           1.7673   -2.8202    1.9080 H       1  LIG1          0.13
    101 H           3.3451   -2.5711    1.1933 H       1  LIG1          0.14
    102 H          -5.9802    1.4655    2.3961 H       1  LIG1          0.14
    103 H          -4.3795    1.4018    1.6910 H       1  LIG1          0.13
    104 H           1.7992   -1.1255    0.0317 H       1  LIG1          0.13
    105 H           2.2953   -2.3558   -1.0916 H       1  LIG1          0.14
    106 H          -6.9520    2.4287    0.3726 H       1  LIG1          0.14
    107 H          -6.0797    0.9522   -0.0138 H       1  LIG1          0.14
    108 H           0.0089   -2.1957   -1.4727 H       1  LIG1       0.15000000000000002
    109 H           0.1026   -3.6241   -0.4477 H       1  LIG1          0.14
    110 H          -5.0772    3.7976   -0.5104 H       1  LIG1       0.15000000000000002
    111 H          -5.7418    2.6985   -1.7123 H       1  LIG1          0.14
    112 H          -1.7272   -2.4185    0.4728 H       1  LIG1       0.18999999999999995
    113 H          -0.4266   -2.0018    1.5635 H       1  LIG1       0.18999999999999995
    114 H          -3.2015    2.0515   -0.1203 H       1  LIG1       0.21999999999999997
    115 H          -3.1794    2.9473   -1.6237 H       1  LIG1       0.18999999999999995
    116 H           1.0963   -2.0480   -4.8640 H       1  LIG1       0.15000000000000002
    117 H           2.7531   -1.4956   -4.5565 H       1  LIG1          0.13
    118 H           2.2746    1.9186   -6.0580 H       1  LIG1       0.17000000000000004
    119 H           3.4281    0.8778   -5.1866 H       1  LIG1       0.16000000000000003
    120 H          -1.1540    1.9952   -0.4934 H       1  LIG1       0.18999999999999995
    121 H           0.3449    1.9001   -1.4350 H       1  LIG1       0.20999999999999996
    122 H          -2.4236    2.2591   -3.9720 H       1  LIG1       0.18000000000000005
    123 H          -1.4901    3.2870   -2.8493 H       1  LIG1       0.18000000000000005
    124 H           0.4781    0.2346   -5.6586 H       1  LIG1       0.16000000000000003
    125 H          -0.7505    0.3877   -3.0593 H       1  LIG1       0.18999999999999995
    126 H           1.5593    0.1014   -3.1040 H       1  LIG1       0.43999999999999995
    127 H           2.8434   -0.7371   -6.8627 H       1  LIG1       0.43000000000000005
@<TRIPOS>BOND
     1    42   127    1
     2    42    37    1
     3   118    34    1
     4   124    37    1
     5    37    34    1
     6    37    33    1
     7    34   119    1
     8    34    48    1
     9    45    51    2
    10   116    33    1
    11   117    33    1
    12    33    41    1
    13    49    51    1
    14    49    36    1
    15    51    48    1
    16    51    46    1
    17   122    36    1
    18    36   123    1
    19    36    38    1
    20    41   126    1
    21   125    38    1
    22    38    50    1
    23    38    35    1
    24    50    40    1
    25    62     5    1
    26    63     5    1
    27    79    13    1
    28    44    40    2
    29    40    32    1
    30   111    30    1
    31    59     3    1
    32   115    32    1
    33    78    13    1
    34   108    29    1
    35    91    20    1
    36     5     3    1
    37     5     7    1
    38   121    35    1
    39    92    21    1
    40    82    15    1
    41    35    47    1
    42    35   120    1
    43    13    15    1
    44    13    11    1
    45   105    27    1
    46    32    30    1
    47    32   114    1
    48    66     7    1
    49     3    58    1
    50     3     1    1
    51    30   110    1
    52    30    28    1
    53    75    11    1
    54    90    20    1
    55    47    39    1
    56    20    21    1
    57    20    18    1
    58    93    21    1
    59    21    23    1
    60    29   109    1
    61    29    27    1
    62    29    31    1
    63    15    83    1
    64    15    17    1
    65     7    67    1
    66     7     9    1
    67    54     1    1
    68    11     9    1
    69    11    74    1
    70    27   104    1
    71    27    25    1
    72   107    28    1
    73     1    53    1
    74     1    52    1
    75    39    31    1
    76    39    43    2
    77    28   106    1
    78    28    26    1
    79   112    31    1
    80    31   113    1
    81     9    71    1
    82     9    70    1
    83    18    17    2
    84    18    87    1
    85    96    23    1
    86    17    86    1
    87    23    25    1
    88    23    97    1
    89    25   101    1
    90    25   100    1
    91    95    22    1
    92   103    26    1
    93    99    24    1
    94    26    24    1
    95    26   102    1
    96    22    24    1
    97    22    94    1
    98    22    19    1
    99    24    98    1
   100    89    19    1
   101    88    19    1
   102    19    16    1
   103    77    12    1
   104    16    85    1
   105    16    84    1
   106    16    14    1
   107    73    10    1
   108    81    14    1
   109    12    14    1
   110    12    10    1
   111    12    76    1
   112    14    80    1
   113    72    10    1
   114    10     8    1
   115     8    69    1
   116     8    68    1
   117     8     6    1
   118    61     4    1
   119    57     2    1
   120    65     6    1
   121     4     6    1
   122     4     2    1
   123     4    60    1
   124     6    64    1
   125     2    56    1
   126     2    55    1
