@<TRIPOS>MOLECULE
GTZCVFVGUGFEME-IWQZZHSRSA-K	6044578	-682.1395760899075
 15 14 0 0 0
SMALL
MULLIKEN NwChem

@<TRIPOS>ATOM
      1 C           0.7178   -1.1008   -0.1266 C.2     1  LIG1       -0.2999999999999998
      2 C           0.7036    1.2543    0.6865 C.3     1  LIG1       -0.4299999999999997
      3 C          -0.0169   -0.0402    0.2874 C.2     1  LIG1       0.08999999999999986
      4 C           0.3849   -2.5652   -0.4380 C.2     1  LIG1       0.4900000000000002
      5 C           0.9632    2.4726   -0.3048 C.2     1  LIG1           0.5
      6 C          -1.5375   -0.0052    0.6123 C.2     1  LIG1       0.4299999999999997
      7 O           1.3904   -3.2531   -0.8380 O.co2   1  LIG1      -0.7100000000000009
      8 O          -0.7855   -3.0038   -0.2604 O.co2   1  LIG1      -0.6999999999999993
      9 O           1.1294    3.5847    0.2930 O.co2   1  LIG1      -0.6899999999999995
     10 O           1.0832    2.2500   -1.5346 O.co2   1  LIG1      -0.6699999999999999
     11 O          -2.3565    0.1271   -0.3324 O.co2   1  LIG1      -0.6699999999999999
     12 O          -1.7915   -0.0113    1.8573 O.co2   1  LIG1      -0.6799999999999997
     13 H           1.7961   -0.9214   -0.2332 H       1  LIG1       0.07999999999999996
     14 H           0.1885    1.6666    1.5623 H       1  LIG1          0.12
     15 H           1.7224    0.9949    1.0314 H       1  LIG1       0.15000000000000002
@<TRIPOS>BOND
     1    10     5   ar
     2     7     4   ar
     3     4     8   ar
     4     4     1    1
     5    11     6   ar
     6     5     9   ar
     7     5     2    1
     8    13     1    1
     9     1     3    2
    10     3     6    1
    11     3     2    1
    12     6    12   ar
    13     2    15    1
    14     2    14    1
