@<TRIPOS>MOLECULE
GUAHPAJOXVYFON-UHFFFAOYSA-N	6044579	-633.4396639614682
 30 29 0 0 0
SMALL
MULLIKEN NwChem

@<TRIPOS>ATOM
      1 C           0.6262   -2.4997    2.7562 C.3     1  LIG1      -0.45999999999999996
      2 C           0.9520    0.4356    0.0273 C.3     1  LIG1      -0.28000000000000025
      3 C          -0.4065    0.6152    0.7232 C.3     1  LIG1      -0.29000000000000004
      4 C           0.8935    0.2553   -1.5010 C.3     1  LIG1      -0.2599999999999998
      5 C          -1.4272   -0.5098    0.4372 C.3     1  LIG1       -0.3600000000000003
      6 C           0.1056    1.3341   -2.2541 C.3     1  LIG1       -0.3700000000000001
      7 C          -0.8193   -2.2043    2.3473 C.3     1  LIG1       -0.040000000000000036
      8 C          -0.8791   -1.8624    0.8450 C.2     1  LIG1       0.46999999999999975
      9 C           0.6667    2.7314   -2.0960 C.2     1  LIG1       0.5999999999999996
     10 N          -1.6625   -3.3717    2.6526 N.3     1  LIG1      -0.7599999999999998
     11 O          -0.4937   -2.6758    0.0242 O.2     1  LIG1      -0.5199999999999996
     12 O           1.6918    3.0374   -1.5259 O.2     1  LIG1      -0.5099999999999998
     13 O          -0.1325    3.6526   -2.6967 O.3     1  LIG1      -0.5899999999999999
     14 H           1.0235   -3.3088    2.1349 H       1  LIG1       0.15000000000000002
     15 H           0.6593   -2.8117    3.8041 H       1  LIG1       0.16000000000000003
     16 H           1.2688   -1.6224    2.6225 H       1  LIG1       0.17000000000000004
     17 H           1.5772    1.3030    0.2596 H       1  LIG1       0.15000000000000002
     18 H           1.4623   -0.4406    0.4473 H       1  LIG1       0.15000000000000002
     19 H          -0.8591    1.5679    0.4258 H       1  LIG1       0.16000000000000003
     20 H          -0.2408    0.6883    1.8056 H       1  LIG1       0.16000000000000003
     21 H           1.9201    0.2387   -1.8841 H       1  LIG1       0.15000000000000002
     22 H           0.4547   -0.7214   -1.7372 H       1  LIG1       0.15000000000000002
     23 H          -1.6770   -0.5456   -0.6268 H       1  LIG1       0.17000000000000004
     24 H          -2.3475   -0.3076    0.9994 H       1  LIG1       0.17000000000000004
     25 H           0.0897    1.1155   -3.3300 H       1  LIG1       0.19999999999999996
     26 H          -0.9489    1.3648   -1.9528 H       1  LIG1       0.18999999999999995
     27 H          -1.2035   -1.3609    2.9341 H       1  LIG1       0.16000000000000003
     28 H          -2.6398   -3.1594    2.4491 H       1  LIG1       0.32999999999999996
     29 H          -1.4018   -4.1206    2.0075 H       1  LIG1       0.31999999999999995
     30 H           0.3011    4.5158   -2.5626 H       1  LIG1       0.43999999999999995
@<TRIPOS>BOND
     1    25     6    1
     2    13    30    1
     3    13     9    1
     4     6     9    1
     5     6    26    1
     6     6     4    1
     7     9    12    2
     8    21     4    1
     9    22     4    1
    10     4     2    1
    11    23     5    1
    12    11     8    2
    13     2    17    1
    14     2    18    1
    15     2     3    1
    16    19     3    1
    17     5     3    1
    18     5     8    1
    19     5    24    1
    20     3    20    1
    21     8     7    1
    22    29    10    1
    23    14     1    1
    24     7    10    1
    25     7     1    1
    26     7    27    1
    27    28    10    1
    28    16     1    1
    29     1    15    1
