@<TRIPOS>MOLECULE
GUBGYTABKSRVRQ-QRZGKKJRSA-N	6044580	-1297.6147690162609
 45 46 0 0 0
SMALL
MULLIKEN NwChem

@<TRIPOS>ATOM
      1 C          -2.2825   -1.5601   -2.3612 C.3     1  LIG1       -0.04999999999999982
      2 C           1.0473   -2.4942    0.9060 C.3     1  LIG1       -0.05999999999999961
      3 C          -2.1561   -0.0927   -1.9677 C.3     1  LIG1       0.11000000000000032
      4 C           0.2123   -1.3336    1.4776 C.3     1  LIG1       0.08999999999999986
      5 C          -1.4668    0.7895   -3.0527 C.3     1  LIG1       0.07000000000000028
      6 C          -0.0850    1.2745   -2.5810 C.3     1  LIG1       0.09999999999999964
      7 C           1.7862    0.6692    1.8146 C.3     1  LIG1       0.09999999999999964
      8 C           1.4734    0.5604    3.3178 C.3     1  LIG1       0.07000000000000028
      9 C          -0.2080    1.9966   -1.2193 C.3     1  LIG1       0.07000000000000028
     10 C           0.6641    0.0472    0.9697 C.3     1  LIG1       0.04999999999999982
     11 C           1.1646   -0.9047    3.6907 C.3     1  LIG1       0.2999999999999998
     12 C          -1.0790    1.1859   -0.2145 C.3     1  LIG1       0.33999999999999986
     13 O          -0.9578   -2.0661   -2.5372 O.3     1  LIG1      -0.6500000000000004
     14 O           1.0748   -2.4591   -0.5196 O.3     1  LIG1      -0.6899999999999995
     15 O          -2.2292    1.9820   -3.2970 O.3     1  LIG1      -0.6699999999999999
     16 O           0.8818    0.2432   -2.5660 O.3     1  LIG1      -0.6899999999999995
     17 O           3.0215   -0.0322    1.5964 O.3     1  LIG1      -0.6699999999999999
     18 O           0.4050    1.4151    3.6764 O.3     1  LIG1      -0.6699999999999999
     19 O          -0.7034    3.3170   -1.3548 O.3     1  LIG1      -0.6899999999999995
     20 O           2.3031   -1.7228    3.6521 O.3     1  LIG1      -0.6799999999999997
     21 O           0.0771   -1.3893    2.8981 O.3     1  LIG1      -0.5299999999999994
     22 O          -1.4422   -0.0982   -0.7409 O.3     1  LIG1      -0.5299999999999994
     23 O          -0.4585    0.9562    1.0134 O.3     1  LIG1      -0.5299999999999994
     24 H          -2.8671   -1.6439   -3.2907 H       1  LIG1       0.17000000000000004
     25 H          -2.8057   -2.1056   -1.5627 H       1  LIG1       0.16000000000000003
     26 H           2.0865   -2.4492    1.2346 H       1  LIG1       0.15000000000000002
     27 H           0.6277   -3.4345    1.2980 H       1  LIG1          0.14
     28 H          -3.1765    0.3053   -1.8036 H       1  LIG1       0.17000000000000004
     29 H          -0.8099   -1.4653    1.1107 H       1  LIG1       0.17000000000000004
     30 H          -1.3407    0.2191   -3.9805 H       1  LIG1       0.17000000000000004
     31 H           0.2664    2.0190   -3.3020 H       1  LIG1       0.16000000000000003
     32 H           1.8846    1.7302    1.5491 H       1  LIG1       0.16000000000000003
     33 H           2.3485    0.8920    3.8867 H       1  LIG1       0.17000000000000004
     34 H           0.7999    2.0944   -0.8079 H       1  LIG1       0.18000000000000005
     35 H           1.0124   -0.0609   -0.0628 H       1  LIG1       0.18000000000000005
     36 H           0.7661   -0.9387    4.7063 H       1  LIG1       0.16000000000000003
     37 H          -1.9835    1.7684    0.0074 H       1  LIG1       0.16000000000000003
     38 H          -0.9816   -2.9465   -2.9435 H       1  LIG1       0.44999999999999996
     39 H           0.1641   -2.4021   -0.8589 H       1  LIG1       0.43000000000000005
     40 H          -3.1207    1.7342   -3.5889 H       1  LIG1       0.43999999999999995
     41 H           0.4889   -0.5871   -2.2468 H       1  LIG1       0.43999999999999995
     42 H           3.1559   -0.1527    0.6427 H       1  LIG1       0.44999999999999996
     43 H          -0.3613    1.1554    3.1358 H       1  LIG1       0.43000000000000005
     44 H          -1.4690    3.2699   -1.9542 H       1  LIG1       0.43000000000000005
     45 H           2.8802   -1.3801    2.9416 H       1  LIG1       0.44999999999999996
@<TRIPOS>BOND
     1    30     5    1
     2    40    15    1
     3    31     6    1
     4    15     5    1
     5    24     1    1
     6     5     6    1
     7     5     3    1
     8    38    13    1
     9     6    16    1
    10     6     9    1
    11    16    41    1
    12    13     1    1
    13     1     3    1
    14     1    25    1
    15     3    28    1
    16     3    22    1
    17    44    19    1
    18    19     9    1
    19     9    34    1
    20     9    12    1
    21    39    14    1
    22    22    12    1
    23    14     2    1
    24    12    37    1
    25    12    23    1
    26    35    10    1
    27    42    17    1
    28     2    26    1
    29     2    27    1
    30     2     4    1
    31    10    23    1
    32    10     4    1
    33    10     7    1
    34    29     4    1
    35     4    21    1
    36    32     7    1
    37    17     7    1
    38     7     8    1
    39    21    11    1
    40    45    20    1
    41    43    18    1
    42     8    18    1
    43     8    11    1
    44     8    33    1
    45    20    11    1
    46    11    36    1
