@<TRIPOS>MOLECULE
GVRIYIMNJGULCZ-QLFWQTQQSA-M	6044581	-1183.46644869107
 40 41 0 0 0
SMALL
MULLIKEN NwChem

@<TRIPOS>ATOM
      1 C           1.4030    3.7318   -2.2711 C.ar    1  LIG1      -0.13999999999999968
      2 C           1.6885    3.6023   -0.9113 C.ar    1  LIG1      -0.16999999999999993
      3 C           0.8256    2.6661   -2.9610 C.ar    1  LIG1      -0.21999999999999975
      4 C           1.4127    2.3997   -0.2619 C.ar    1  LIG1      -0.1900000000000004
      5 C          -0.0928    0.3550   -3.1295 C.2     1  LIG1      -0.21999999999999975
      6 C          -1.3184   -0.1767   -3.0037 C.2     1  LIG1       -0.16999999999999993
      7 C           2.1231   -0.3120    2.4790 C.3     1  LIG1       -0.08000000000000007
      8 C           0.5056    1.4564   -2.3266 C.ar    1  LIG1       0.1299999999999999
      9 C           0.8433    1.3364   -0.9653 C.ar    1  LIG1       0.28000000000000025
     10 C           0.5938   -0.4022    2.7686 C.3     1  LIG1       0.08999999999999986
     11 C          -2.3393    0.1661   -1.9276 C.2     1  LIG1          0.54
     12 C           0.0044   -1.8241    2.7532 C.3     1  LIG1       0.08999999999999986
     13 C          -0.1151   -2.3437    1.3124 C.3     1  LIG1       0.11000000000000032
     14 C          -0.9852   -1.3900    0.4882 C.3     1  LIG1       0.040000000000000036
     15 C          -0.4768    0.0631    0.6061 C.3     1  LIG1       0.3099999999999996
     16 O           2.8487   -1.4957    2.7863 O.3     1  LIG1      -0.6799999999999997
     17 O          -3.0247   -0.8417   -1.5471 O.co2   1  LIG1      -0.6699999999999999
     18 O          -2.3576    1.3298   -1.4783 O.co2   1  LIG1      -0.6300000000000008
     19 O          -1.2576   -1.8660    3.4042 O.3     1  LIG1      -0.6999999999999993
     20 O           1.1922   -2.4806    0.7144 O.3     1  LIG1      -0.6899999999999995
     21 O          -2.3288   -1.4758    0.9171 O.3     1  LIG1      -0.7100000000000009
     22 O           0.6487    0.1297   -0.3171 O.3     1  LIG1      -0.5899999999999999
     23 O          -0.1366    0.4902    1.9024 O.3     1  LIG1      -0.5199999999999996
     24 H           1.6201    4.6613   -2.7923 H       1  LIG1       0.15000000000000002
     25 H           2.1301    4.4279   -0.3580 H       1  LIG1       0.16000000000000003
     26 H           0.5836    2.7734   -4.0159 H       1  LIG1       0.15000000000000002
     27 H           1.6186    2.2641    0.7939 H       1  LIG1       0.16000000000000003
     28 H           0.5506   -0.0179   -3.9302 H       1  LIG1       0.17000000000000004
     29 H          -1.5979   -0.9933   -3.6696 H       1  LIG1          0.14
     30 H           2.2595   -0.0247    1.4313 H       1  LIG1       0.16000000000000003
     31 H           2.5558    0.4858    3.0938 H       1  LIG1       0.16000000000000003
     32 H           0.3882   -0.0131    3.7708 H       1  LIG1       0.16000000000000003
     33 H           0.6766   -2.4687    3.3274 H       1  LIG1       0.15000000000000002
     34 H          -0.5871   -3.3314    1.3242 H       1  LIG1       0.16000000000000003
     35 H          -0.9126   -1.6689   -0.5678 H       1  LIG1       0.16000000000000003
     36 H          -1.2435    0.7575    0.2638 H       1  LIG1       0.18000000000000005
     37 H           2.5467   -2.1345    2.1097 H       1  LIG1       0.43000000000000005
     38 H          -1.9161   -1.5328    2.7599 H       1  LIG1       0.43000000000000005
     39 H           1.3099   -1.7297    0.1025 H       1  LIG1       0.44999999999999996
     40 H          -2.8505   -1.1559    0.1171 H       1  LIG1       0.43000000000000005
@<TRIPOS>BOND
     1    26     3    1
     2    28     5    1
     3    29     6    1
     4     5     6    2
     5     5     8    1
     6     6    11    1
     7     3     8   ar
     8     3     1   ar
     9    24     1    1
    10     8     9   ar
    11     1     2   ar
    12    11    17   ar
    13    11    18   ar
    14     9    22    1
    15     9     4   ar
    16     2    25    1
    17     2     4   ar
    18    35    14    1
    19    22    15    1
    20     4    27    1
    21    39    20    1
    22    40    21    1
    23    36    15    1
    24    14    15    1
    25    14    21    1
    26    14    13    1
    27    15    23    1
    28    20    13    1
    29    13    34    1
    30    13    12    1
    31    30     7    1
    32    23    10    1
    33    37    16    1
    34     7    10    1
    35     7    16    1
    36     7    31    1
    37    12    10    1
    38    12    33    1
    39    12    19    1
    40    38    19    1
    41    10    32    1
