@<TRIPOS>MOLECULE
GVVPGTZRZFNKDS-JXMROGBWSA-K	11095399	-1600.9261119995797
 36 35 0 0 0
SMALL
MULLIKEN NwChem

@<TRIPOS>ATOM
      1 C          -4.9550    2.6562   -1.5538 C.3     1  LIG1      -0.5300000000000002
      2 C          -6.9043    2.0727   -3.0514 C.3     1  LIG1      -0.5199999999999996
      3 C          -2.0859   -2.8017   -1.6064 C.3     1  LIG1        -0.54
      4 C          -4.2846   -0.3949   -1.4422 C.3     1  LIG1      -0.3099999999999996
      5 C          -5.4364    0.2413   -2.1709 C.2     1  LIG1      -0.20000000000000018
      6 C          -2.9668   -0.4958   -2.2737 C.3     1  LIG1      -0.33000000000000007
      7 C          -0.7639   -0.7262   -1.1021 C.2     1  LIG1      -0.21999999999999975
      8 C           0.4443   -1.3757   -0.4737 C.3     1  LIG1       -0.040000000000000036
      9 C          -5.7365    1.5748   -2.2461 C.2     1  LIG1      0.1900000000000004
     10 C          -1.8662   -1.3042   -1.6148 C.2     1  LIG1      0.17999999999999972
     11 O           4.8078    1.9651    1.2817 O.2     1  LIG1      -0.7799999999999994
     12 O           5.5025   -0.1586    2.5967 O.3     1  LIG1      -0.7899999999999991
     13 O           3.9718    1.6166    3.6936 O.3     1  LIG1      -0.7799999999999994
     14 O           3.3909   -1.3212   -0.3314 O.2     1  LIG1      -0.7400000000000002
     15 O           2.2427   -2.3571    1.7725 O.3     1  LIG1      -0.7300000000000004
     16 O           1.0515   -0.4989    0.4201 O.3     1  LIG1      -0.6300000000000008
     17 O           2.9898    0.1422    1.8365 O.3     1  LIG1      -0.6699999999999999
     18 P           4.4798    0.9650    2.3976 P.3     1  LIG1       0.9000000000000004
     19 P           2.6183   -1.1306    0.9593 P.3     1  LIG1       1.0299999999999994
     20 H          -5.5709    3.2151   -0.8231 H       1  LIG1       0.16000000000000003
     21 H          -4.0811    2.2723   -1.0206 H       1  LIG1       0.16000000000000003
     22 H          -4.5902    3.4157   -2.2711 H       1  LIG1       0.16000000000000003
     23 H          -7.4353    1.2532   -3.5538 H       1  LIG1       0.16000000000000003
     24 H          -7.6479    2.6151   -2.4323 H       1  LIG1       0.16000000000000003
     25 H          -6.5985    2.7969   -3.8330 H       1  LIG1       0.16000000000000003
     26 H          -3.0886   -3.0694   -1.2358 H       1  LIG1       0.16000000000000003
     27 H          -1.3482   -3.3101   -0.9800 H       1  LIG1       0.16000000000000003
     28 H          -2.0119   -3.2244   -2.6233 H       1  LIG1       0.16000000000000003
     29 H          -4.0443    0.1425   -0.5148 H       1  LIG1       0.15000000000000002
     30 H          -4.5743   -1.4095   -1.1316 H       1  LIG1       0.15000000000000002
     31 H          -6.0533   -0.4400   -2.7636 H       1  LIG1          0.13
     32 H          -2.6202    0.5256   -2.4773 H       1  LIG1       0.15000000000000002
     33 H          -3.2273   -0.9336   -3.2538 H       1  LIG1          0.14
     34 H          -0.6721    0.3603   -1.1667 H       1  LIG1          0.12
     35 H           1.1540   -1.6520   -1.2818 H       1  LIG1          0.12
     36 H           0.1730   -2.3312    0.0202 H       1  LIG1           0.12
@<TRIPOS>BOND
     1    25     2    1
     2    23     2    1
     3    33     6    1
     4     2    24    1
     5     2     9    1
     6    31     5    1
     7    28     3    1
     8    32     6    1
     9     6    10    1
    10     6     4    1
    11    22     1    1
    12     9     5    2
    13     9     1    1
    14     5     4    1
    15    10     3    1
    16    10     7    2
    17     3    26    1
    18     3    27    1
    19     1    21    1
    20     1    20    1
    21     4    30    1
    22     4    29    1
    23    35     8    1
    24    34     7    1
    25     7     8    1
    26     8    36    1
    27     8    16    1
    28    14    19    2
    29    16    19    1
    30    19    15    1
    31    19    17    1
    32    11    18    2
    33    17    18    1
    34    18    12    1
    35    18    13    1
