@<TRIPOS>MOLECULE
GWENQMVPLJAMAE-UHFFFAOYSA-N	6044583	-515.5572647132203
 21 20 0 0 0
SMALL
MULLIKEN NwChem

@<TRIPOS>ATOM
      1 C           0.4853    1.0493   -1.1363 C.3     1  LIG1      -0.2699999999999996
      2 C          -0.0665    0.9497   -2.5719 C.3     1  LIG1        -0.25
      3 C          -0.3889    0.3095   -0.1170 C.3     1  LIG1       -0.3700000000000001
      4 C           0.4161   -0.2844   -3.3468 C.3     1  LIG1      -0.15000000000000036
      5 C           0.2453    0.1515    1.2295 C.2     1  LIG1       0.41000000000000014
      6 C          -0.6517   -0.3916    2.3728 C.2     1  LIG1       0.5800000000000001
      7 N           0.1309   -1.5406   -2.6312 N.3     1  LIG1      -0.7699999999999996
      8 O           1.4125    0.3948    1.4970 O.2     1  LIG1      -0.4900000000000002
      9 O           0.0180   -0.5299    3.5246 O.3     1  LIG1      -0.5899999999999999
     10 O          -1.8203   -0.6559    2.2281 O.2     1  LIG1      -0.4900000000000002
     11 H           0.5618    2.1000   -0.8319 H       1  LIG1       0.16000000000000003
     12 H           1.5101    0.6573   -1.0940 H       1  LIG1       0.15000000000000002
     13 H          -1.1639    0.9492   -2.5432 H       1  LIG1          0.14
     14 H           0.2345    1.8377   -3.1426 H       1  LIG1          0.14
     15 H          -1.3617    0.7998    0.0208 H       1  LIG1       0.19999999999999996
     16 H          -0.6533   -0.6952   -0.4799 H       1  LIG1       0.20999999999999996
     17 H          -0.1105   -0.3205   -4.3077 H       1  LIG1       0.15000000000000002
     18 H           1.4888   -0.1595   -3.5803 H       1  LIG1          0.13
     19 H           0.1903   -2.3257   -3.2768 H       1  LIG1       0.32999999999999996
     20 H           0.8560   -1.7064   -1.9348 H       1  LIG1       0.32999999999999996
     21 H           0.9372   -0.2356    3.3396 H       1  LIG1       0.45999999999999996
@<TRIPOS>BOND
     1    17     4    1
     2    18     4    1
     3     4     7    1
     4     4     2    1
     5    19     7    1
     6    14     2    1
     7     7    20    1
     8     2    13    1
     9     2     1    1
    10     1    12    1
    11     1    11    1
    12     1     3    1
    13    16     3    1
    14     3    15    1
    15     3     5    1
    16     5     8    2
    17     5     6    1
    18    10     6    2
    19     6     9    1
    20    21     9    1
