@<TRIPOS>MOLECULE
GWHCXVQVJPWHRF-KTKRTIGZSA-M	6044584	-1091.711960644489
 71 70 0 0 0
SMALL
MULLIKEN NwChem

@<TRIPOS>ATOM
      1 C           4.7939    4.4427    9.5077 C.3     1  LIG1      -0.45999999999999996
      2 C           5.3038    4.3430    8.0656 C.3     1  LIG1      -0.2599999999999998
      3 C           5.2945    2.9149    7.4942 C.3     1  LIG1      -0.2599999999999998
      4 C           3.9197    2.2241    7.4716 C.3     1  LIG1      -0.2699999999999996
      5 C           2.8197    2.9837    6.7095 C.3     1  LIG1      -0.2699999999999996
      6 C           3.1473    3.3129    5.2428 C.3     1  LIG1      -0.2699999999999996
      7 C           3.5107    2.1027    4.3669 C.3     1  LIG1      -0.2599999999999998
      8 C           2.4341    0.9948    4.3139 C.3     1  LIG1      -0.3099999999999996
      9 C           1.0828    1.4966    3.8674 C.2     1  LIG1      -0.1299999999999999
     10 C           0.5813    1.4374    2.6276 C.2     1  LIG1      -0.1299999999999999
     11 C           1.2400    0.8215    1.4194 C.3     1  LIG1      -0.3099999999999996
     12 C           0.7289   -0.6027    1.1029 C.3     1  LIG1      -0.2599999999999998
     13 C          -0.7859   -0.7114    0.8607 C.3     1  LIG1      -0.2699999999999996
     14 C          -1.3359    0.1850   -0.2629 C.3     1  LIG1      -0.2699999999999996
     15 C          -0.6556    0.0110   -1.6318 C.3     1  LIG1      -0.2699999999999996
     16 C          -0.6646   -1.4223   -2.1908 C.3     1  LIG1      -0.2699999999999996
     17 C          -2.0573   -2.0555   -2.3504 C.3     1  LIG1      -0.2699999999999996
     18 C          -3.0343   -1.2644   -3.2372 C.3     1  LIG1      -0.2699999999999996
     19 C          -2.5289   -0.9732   -4.6622 C.3     1  LIG1      -0.2699999999999996
     20 C          -2.1150   -2.2109   -5.4753 C.3     1  LIG1      -0.2699999999999996
     21 C          -3.2138   -3.2746   -5.6442 C.3     1  LIG1      -0.2699999999999996
     22 C          -4.5108   -2.7657   -6.3036 C.3     1  LIG1      -0.2599999999999998
     23 C          -4.2759   -2.0140   -7.6253 C.3     1  LIG1       -0.33000000000000007
     24 C          -3.3991   -2.8859   -8.5949 C.2     1  LIG1       0.5199999999999996
     25 O          -3.9574   -3.9390   -8.9962 O.co2   1  LIG1      -0.6899999999999995
     26 O          -2.2301   -2.4652   -8.8076 O.co2   1  LIG1      -0.6799999999999997
     27 H           3.7362    4.1676    9.5814 H       1  LIG1       0.15000000000000002
     28 H           4.8972    5.4630    9.8945 H       1  LIG1          0.14
     29 H           5.3560    3.7743   10.1722 H       1  LIG1          0.14
     30 H           4.7052    5.0019    7.4230 H       1  LIG1          0.14
     31 H           6.3310    4.7288    8.0190 H       1  LIG1          0.13
     32 H           5.7031    2.9422    6.4755 H       1  LIG1          0.14
     33 H           5.9867    2.2939    8.0814 H       1  LIG1          0.13
     34 H           4.0429    1.2249    7.0328 H       1  LIG1          0.14
     35 H           3.5786    2.0548    8.5018 H       1  LIG1          0.13
     36 H           1.8962    2.3906    6.7519 H       1  LIG1          0.14
     37 H           2.5925    3.9214    7.2351 H       1  LIG1          0.14
     38 H           2.2831    3.8240    4.7991 H       1  LIG1          0.13
     39 H           3.9764    4.0322    5.2055 H       1  LIG1          0.14
     40 H           3.6918    2.4568    3.3440 H       1  LIG1          0.13
     41 H           4.4554    1.6619    4.7139 H       1  LIG1          0.14
     42 H           2.7866    0.1966    3.6511 H       1  LIG1       0.15000000000000002
     43 H           2.3342    0.5395    5.3085 H       1  LIG1       0.15000000000000002
     44 H           0.4803    1.9758    4.6398 H       1  LIG1          0.13
     45 H          -0.4163    1.8442    2.4628 H       1  LIG1          0.13
     46 H           1.0619    1.4673    0.5495 H       1  LIG1       0.15000000000000002
     47 H           2.3276    0.7834    1.5510 H       1  LIG1       0.15000000000000002
     48 H           1.2696   -0.9775    0.2242 H       1  LIG1          0.14
     49 H           0.9996   -1.2609    1.9397 H       1  LIG1          0.13
     50 H          -1.0236   -1.7589    0.6356 H       1  LIG1          0.14
     51 H          -1.3163   -0.4751    1.7932 H       1  LIG1          0.13
     52 H          -2.4108   -0.0116   -0.3655 H       1  LIG1          0.14
     53 H          -1.2550    1.2393    0.0387 H       1  LIG1          0.13
     54 H          -1.1465    0.6805   -2.3493 H       1  LIG1          0.14
     55 H           0.3861    0.3562   -1.5676 H       1  LIG1          0.13
     56 H          -0.1622   -1.4143   -3.1656 H       1  LIG1          0.13
     57 H          -0.0543   -2.0696   -1.5453 H       1  LIG1          0.13
     58 H          -1.9295   -3.0610   -2.7703 H       1  LIG1          0.13
     59 H          -2.5104   -2.1991   -1.3586 H       1  LIG1          0.13
     60 H          -3.9734   -1.8290   -3.2999 H       1  LIG1          0.13
     61 H          -3.2877   -0.3138   -2.7437 H       1  LIG1          0.13
     62 H          -3.3191   -0.4374   -5.2029 H       1  LIG1          0.13
     63 H          -1.6787   -0.2767   -4.6120 H       1  LIG1          0.13
     64 H          -1.8014   -1.9054   -6.4807 H       1  LIG1          0.14
     65 H          -1.2359   -2.6787   -5.0050 H       1  LIG1          0.12
     66 H          -2.8101   -4.0718   -6.2789 H       1  LIG1          0.12
     67 H          -3.4557   -3.7367   -4.6729 H       1  LIG1          0.13
     68 H          -5.1388   -3.6377   -6.5267 H       1  LIG1          0.12
     69 H          -5.0723   -2.1371   -5.5916 H       1  LIG1          0.13
     70 H          -5.2520   -1.8167   -8.0916 H       1  LIG1       0.10999999999999999
     71 H          -3.7868   -1.0477   -7.4457 H       1  LIG1       0.10999999999999999
@<TRIPOS>BOND
     1    25    24   ar
     2    26    24   ar
     3    24    23    1
     4    70    23    1
     5    23    71    1
     6    23    22    1
     7    68    22    1
     8    64    20    1
     9    22    21    1
    10    22    69    1
    11    66    21    1
    12    21    20    1
    13    21    67    1
    14    20    65    1
    15    20    19    1
    16    62    19    1
    17    19    63    1
    18    19    18    1
    19    60    18    1
    20    18    61    1
    21    18    17    1
    22    56    16    1
    23    58    17    1
    24    17    16    1
    25    17    59    1
    26    54    15    1
    27    16    15    1
    28    16    57    1
    29    15    55    1
    30    15    14    1
    31    52    14    1
    32    14    53    1
    33    14    13    1
    34    48    12    1
    35    46    11    1
    36    50    13    1
    37    13    12    1
    38    13    51    1
    39    12    11    1
    40    12    49    1
    41    11    47    1
    42    11    10    1
    43    45    10    1
    44    10     9    2
    45    40     7    1
    46    42     8    1
    47     9     8    1
    48     9    44    1
    49     8     7    1
    50     8    43    1
    51     7    41    1
    52     7     6    1
    53    38     6    1
    54    39     6    1
    55     6     5    1
    56    32     3    1
    57     5    36    1
    58     5    37    1
    59     5     4    1
    60    34     4    1
    61    30     2    1
    62     4     3    1
    63     4    35    1
    64     3     2    1
    65     3    33    1
    66    31     2    1
    67     2     1    1
    68     1    27    1
    69     1    28    1
    70     1    29    1
