@<TRIPOS>MOLECULE
GWNVDXQDILPJIG-NXOLIXFESA-L	6044585	-2409.3408874194056
 88 87 0 0 0
SMALL
MULLIKEN NwChem

@<TRIPOS>ATOM
      1 C           4.8846    2.9759   -9.9111 C.3     1  UNK1      -0.45999999999999996
      2 C           5.2160    2.2471   -8.6034 C.3     1  UNK1      -0.2599999999999998
      3 C           4.6898    2.9565   -7.3439 C.3     1  UNK1      -0.2599999999999998
      4 C           3.1674    3.1714   -7.3025 C.3     1  UNK1      -0.2599999999999998
      5 C           2.3282    1.8825   -7.4502 C.3     1  UNK1      -0.3200000000000003
      6 C           2.6762    0.8203   -6.4371 C.2     1  UNK1      -0.1200000000000001
      7 C           2.0194    0.5482   -5.3020 C.2     1  UNK1      -0.13999999999999968
      8 C           0.7564    1.1956   -4.7864 C.3     1  UNK1      -0.34999999999999964
      9 C          -0.4013    0.2246   -4.8387 C.2     1  UNK1      -0.11000000000000032
     10 C          -1.2631   -0.0733   -3.8448 C.2     1  UNK1      -0.17999999999999972
     11 C          -1.3798    0.5089   -2.5123 C.2     1  UNK1      -0.16999999999999993
     12 C          -1.1966    1.8119   -2.1863 C.2     1  UNK1      -0.16000000000000014
     13 C          -1.2950    2.3838   -0.8486 C.2     1  UNK1      -0.1900000000000004
     14 C           1.0375    2.8640    4.8148 C.3     1  UNK1      -0.2699999999999996
     15 C          -0.1213    3.0379    3.8165 C.3     1  UNK1      -0.29000000000000004
     16 C          -1.1356    1.7100    0.3056 C.2     1  UNK1      -0.07000000000000028
     17 C           2.4410    3.2865    4.3262 C.3     1  UNK1       -0.33999999999999986
     18 C          -0.7905   -3.8921    4.6611 C.3     1  UNK1      -0.2599999999999998
     19 C          -1.5433   -2.7978    3.8787 C.3     1  UNK1       -0.3799999999999999
     20 CA         -2.5943   -2.9907   -0.5843 C.3     2  GLY2       -0.23000000000000043
     21 C          -2.4640   -0.2362    2.5393 C.3     1  UNK1       -0.45999999999999996
     22 C           0.0448   -4.9422    3.8798 C.3     1  UNK1           0.0
     23 C          -3.4954   -1.2068    1.8674 C.3     1  UNK1           0.0
     24 C           0.0012    2.2167    2.5224 C.3     1  UNK1       0.16999999999999993
     25 C          -1.3017    2.3063    1.6678 C.3     1  UNK1       -0.33000000000000007
     26 C          -2.4692   -3.3276    2.7437 C.2     1  UNK1       0.5300000000000002
     27 C           2.4729    4.7528    3.8050 C.2     1  UNK1          0.54
     28 C          -1.1251   -3.0989   -0.2781 C.2     2  GLY2       0.6100000000000003
     29 C          -3.5394   -0.9726    0.3395 C.2     1  UNK1          0.54
     30 C           0.4193   -4.4874    2.4818 C.2     1  UNK1       0.6200000000000001
     31 N           1.2773   -5.2596    4.6522 N.3     1  UNK1      -0.7699999999999996
     32 N          -3.1637   -1.6630   -0.6693 N.2     2  GLY2      -0.5199999999999996
     33 N          -3.3742   -2.6165    2.0941 N.am    1  UNK1      -0.5999999999999996
     34 O           1.0790    2.6195    1.7098 O.3     1  UNK1      -0.7300000000000004
     35 O          -2.2989   -4.5591    2.4852 O.2     1  UNK1      -0.6799999999999997
     36 O           2.9783    5.6234    4.5406 O.co2   1  UNK1      -0.6500000000000004
     37 O           1.9324    4.9317    2.6574 O.co2   1  UNK1      -0.6600000000000001
     38 O          -0.4486   -4.0698   -0.6173 O.2     2  GLY2      -0.5600000000000005
     39 OXT        -0.6443   -2.1002    0.4625 O.3     2  GLY2      -0.5800000000000001
     40 O          -4.1401    0.2160    0.0414 O.2     1  UNK1      -0.6199999999999992
     41 O           0.8710   -3.3651    2.2473 O.2     1  UNK1      -0.5700000000000003
     42 O           0.3527   -5.4465    1.5578 O.3     1  UNK1      -0.6199999999999992
     43 S          -2.8190    1.5836    2.4949 S.3     1  UNK1      0.009999999999999787
     44 H           3.8034    3.0125  -10.0875 H       1  UNK1       0.15000000000000002
     45 H           5.3431    2.4768  -10.7736 H       1  UNK1          0.14
     46 H           5.2500    4.0108   -9.8887 H       1  UNK1          0.14
     47 H           4.8143    1.2259   -8.6463 H       1  UNK1          0.14
     48 H           6.3059    2.1385   -8.5158 H       1  UNK1          0.13
     49 H           4.9889    2.3765   -6.4623 H       1  UNK1          0.13
     50 H           5.1859    3.9338   -7.2541 H       1  UNK1          0.13
     51 H           2.9105    3.6426   -6.3454 H       1  UNK1          0.13
     52 H           2.8703    3.8808   -8.0879 H       1  UNK1          0.14
     53 H           1.2683    2.1498   -7.3794 H       1  UNK1       0.15000000000000002
     54 H           2.4718    1.4738   -8.4616 H       1  UNK1       0.15000000000000002
     55 H           3.5773    0.2448   -6.6534 H       1  UNK1          0.14
     56 H           2.3983   -0.2561   -4.6704 H       1  UNK1          0.13
     57 H           0.9155    1.5123   -3.7482 H       1  UNK1       0.16000000000000003
     58 H           0.5301    2.1091   -5.3549 H       1  UNK1       0.17000000000000004
     59 H          -0.4859   -0.3324   -5.7730 H       1  UNK1          0.14
     60 H          -1.9618   -0.8910   -4.0347 H       1  UNK1          0.14
     61 H          -1.7151   -0.1843   -1.7422 H       1  UNK1       0.17000000000000004
     62 H          -1.0057    2.5226   -2.9924 H       1  UNK1       0.15000000000000002
     63 H          -1.4908    3.4555   -0.7974 H       1  UNK1          0.14
     64 H           0.7955    3.4559    5.7114 H       1  UNK1          0.13
     65 H           1.0664    1.8104    5.1392 H       1  UNK1          0.13
     66 H          -0.1988    4.0950    3.5363 H       1  UNK1          0.13
     67 H          -1.0558    2.7567    4.3170 H       1  UNK1          0.14
     68 H          -0.8601    0.6568    0.2707 H       1  UNK1       0.15000000000000002
     69 H           3.1487    3.1923    5.1605 H       1  UNK1          0.12
     70 H           2.7555    2.6111    3.5235 H       1  UNK1          0.13
     71 H          -0.1136   -3.3876    5.3651 H       1  UNK1          0.13
     72 H          -1.5020   -4.4569    5.2738 H       1  UNK1          0.14
     73 H          -0.8110   -2.1048    3.4593 H       1  UNK1       0.16000000000000003
     74 H          -2.1324   -2.2263    4.6080 H       1  UNK1       0.15000000000000002
     75 HA1        -3.0528   -3.5665    0.2412 H       2  GLY2       0.19999999999999996
     76 HA2        -2.7553   -3.5100   -1.5362 H       2  GLY2       0.16000000000000003
     77 H          -1.4726   -0.4108    2.1228 H       1  UNK1       0.20999999999999996
     78 H          -2.4255   -0.4885    3.5962 H       1  UNK1       0.18999999999999995
     79 H          -0.5327   -5.8579    3.7694 H       1  UNK1       0.15000000000000002
     80 H          -4.4897   -0.8625    2.2068 H       1  UNK1          0.14
     81 H           0.1493    1.1548    2.7880 H       1  UNK1          0.12
     82 H          -1.5657    3.3666    1.5697 H       1  UNK1       0.18000000000000005
     83 H           1.8060   -5.9682    4.1384 H       1  UNK1       0.32999999999999996
     84 H           1.8651   -4.4228    4.6392 H       1  UNK1       0.31999999999999995
     85 H           1.3900    3.5402    2.0046 H       1  UNK1       0.43000000000000005
     86 HXT         0.1750   -2.4249    0.9179 H       2  GLY2       0.44999999999999996
     87 H          -4.0439    0.3000   -0.9262 H       1  UNK1       0.42000000000000004
     88 H           0.3339   -5.0010    0.6704 H       1  UNK1       0.44999999999999996
@<TRIPOS>BOND
     1    45     1    1
     2    44     1    1
     3     1    46    1
     4     1     2    1
     5    47     2    1
     6     2    48    1
     7     2     3    1
     8    54     5    1
     9    52     4    1
    10     5    53    1
    11     5     4    1
    12     5     6    1
    13     3     4    1
    14     3    50    1
    15     3    49    1
    16     4    51    1
    17    55     6    1
    18     6     7    2
    19    59     9    1
    20    58     8    1
    21     7     8    1
    22     7    56    1
    23     9     8    1
    24     9    10    2
    25     8    57    1
    26    60    10    1
    27    10    11    1
    28    62    12    1
    29    11    12    2
    30    11    61    1
    31    12    13    1
    32    76    20    1
    33    87    40    1
    34    13    63    1
    35    13    16    2
    36    32    20    1
    37    32    29    2
    38    38    28    2
    39    20    28    1
    40    20    75    1
    41    28    39    1
    42    40    29    1
    43    68    16    1
    44    16    25    1
    45    29    23    1
    46    39    86    1
    47    88    42    1
    48    42    30    1
    49    82    25    1
    50    25    43    1
    51    25    24    1
    52    34    85    1
    53    34    24    1
    54    23    33    1
    55    23    80    1
    56    23    21    1
    57    33    26   am
    58    77    21    1
    59    41    30    2
    60    30    22    1
    61    35    26    2
    62    43    21    1
    63    24    81    1
    64    24    15    1
    65    21    78    1
    66    37    27   ar
    67    26    19    1
    68    73    19    1
    69    70    17    1
    70    66    15    1
    71    79    22    1
    72    27    17    1
    73    27    36   ar
    74    15    67    1
    75    15    14    1
    76    19    74    1
    77    19    18    1
    78    22    31    1
    79    22    18    1
    80    83    31    1
    81    17    14    1
    82    17    69    1
    83    84    31    1
    84    18    72    1
    85    18    71    1
    86    14    65    1
    87    14    64    1
