@<TRIPOS>MOLECULE
GWYFCOCPABKNJV-UHFFFAOYSA-M	6044586	-346.4535745571245
 16 15 0 0 0
SMALL
MULLIKEN NwChem

@<TRIPOS>ATOM
      1 C           1.5310   -0.4099    0.9836 C.3     1  LIG1      -0.4500000000000002
      2 C           1.4407   -1.6914   -1.1928 C.3     1  LIG1      -0.4500000000000002
      3 C          -0.6332   -0.4684   -0.3326 C.3     1  LIG1       -0.3099999999999996
      4 C           0.9043   -0.4788   -0.4176 C.3     1  LIG1      -0.05999999999999961
      5 C          -1.1304    0.9191    0.2193 C.2     1  LIG1           0.5
      6 O          -1.1420    1.8428   -0.6335 O.co2   1  LIG1      -0.6799999999999997
      7 O          -1.3863    0.9564    1.4517 O.co2   1  LIG1      -0.6799999999999997
      8 H           1.3519   -1.3495    1.5272 H       1  LIG1          0.13
      9 H           1.0668    0.3929    1.5634 H       1  LIG1          0.14
     10 H           2.6191   -0.2540    0.9359 H       1  LIG1          0.14
     11 H           1.1502   -2.6280   -0.6949 H       1  LIG1          0.14
     12 H           1.0374   -1.7217   -2.2137 H       1  LIG1          0.14
     13 H           2.5393   -1.6813   -1.2628 H       1  LIG1          0.14
     14 H          -1.0461   -0.6269   -1.3396 H       1  LIG1       0.10999999999999999
     15 H          -0.9708   -1.2896    0.3180 H       1  LIG1       0.09999999999999998
     16 H           1.1811    0.4332   -0.9668 H       1  LIG1       0.10999999999999999
@<TRIPOS>BOND
     1    12     2    1
     2    14     3    1
     3    13     2    1
     4     2    11    1
     5     2     4    1
     6    16     4    1
     7     6     5   ar
     8     4     3    1
     9     4     1    1
    10     3     5    1
    11     3    15    1
    12     5     7   ar
    13    10     1    1
    14     1     8    1
    15     1     9    1
