@<TRIPOS>MOLECULE
GXIURPTVHJPJLF-UWTATZPHSA-K	6044587	-985.078630111071
 15 14 0 0 0
SMALL
MULLIKEN NwChem

@<TRIPOS>ATOM
      1 C           1.4937    0.6764    0.5521 C.3     1  LIG1       -0.07000000000000028
      2 C           0.5471   -0.5561    0.4165 C.3     1  LIG1       0.04999999999999982
      3 C           1.4133   -1.8292    0.0850 C.2     1  LIG1       0.5099999999999998
      4 O           2.5359    0.5190    1.5342 O.3     1  LIG1      -0.7300000000000004
      5 O           2.3877   -2.0252    0.9223 O.co2   1  LIG1      -0.6899999999999995
      6 O           1.1724   -2.5680   -0.8927 O.co2   1  LIG1      -0.6500000000000004
      7 O          -1.3500    2.1131    0.2006 O.3     1  LIG1      -0.7899999999999991
      8 O          -2.8307    0.4739   -1.1697 O.2     1  LIG1      -0.7799999999999994
      9 O          -2.3154   -0.0150    1.3446 O.3     1  LIG1      -0.8000000000000007
     10 O          -0.4652   -0.2761   -0.5078 O.3     1  LIG1      -0.6699999999999999
     11 P          -1.8861    0.6700    0.0299 P.3     1  LIG1       0.9000000000000004
     12 H           0.8591    1.5344    0.7979 H       1  LIG1          0.14
     13 H           1.9328    0.8666   -0.4523 H       1  LIG1       0.08999999999999997
     14 H           0.1171   -0.7330    1.4195 H       1  LIG1       0.09999999999999998
     15 H           2.6646   -0.4755    1.4875 H       1  LIG1            0.4
@<TRIPOS>BOND
     1     8    11    2
     2     6     3   ar
     3    10    11    1
     4    10     2    1
     5    13     1    1
     6    11     7    1
     7    11     9    1
     8     3     2    1
     9     3     5   ar
    10     2     1    1
    11     2    14    1
    12     1    12    1
    13     1     4    1
    14    15     4    1
