@<TRIPOS>MOLECULE
GXNFPEOUKFOTKY-LPHQIWJTSA-N	6044589	-1821.1159543356562
 101 101 0 0 0
SMALL
MULLIKEN NwChem

@<TRIPOS>ATOM
      1 C           2.8647   -1.7750   -5.5061 C.3     1  LIG1            -0.54
      2 C           3.3068   -3.6804   -3.8879 C.3     1  LIG1      -0.5300000000000002
      3 C           6.2322    1.2150   -1.3319 C.3     1  LIG1        -0.54
      4 C           2.6776   -3.1086    1.1947 C.3     1  LIG1        -0.54
      5 C          -0.4821   -1.6014   -3.4828 C.3     1  LIG1      -0.5599999999999996
      6 C           1.7064    2.8395   -1.9431 C.3     1  LIG1      -0.5499999999999998
      7 C           1.2819    1.6058    3.8392 C.3     1  LIG1        -0.54
      8 C          -1.0422   -1.4162    3.1469 C.3     1  LIG1      -0.5599999999999996
      9 C          -5.7049   -2.8900    0.8942 C.3     1  LIG1       -0.21999999999999975
     10 C          -6.2316    2.3589    1.3720 C.3     1  LIG1       -0.21999999999999975
     11 C           5.1923   -0.2478   -4.1240 C.3     1  LIG1      -0.3099999999999996
     12 C           4.3039   -0.3757    0.5385 C.3     1  LIG1      -0.3200000000000003
     13 C           0.1436   -2.6184   -0.4784 C.3     1  LIG1      -0.3200000000000003
     14 C          -1.0194    1.3990   -2.9181 C.3     1  LIG1      -0.3099999999999996
     15 C           1.3534    3.2574    0.9931 C.3     1  LIG1      -0.3200000000000003
     16 C           4.7227   -1.6429   -3.8031 C.2     1  LIG1      -0.17999999999999972
     17 C           4.5339    0.8131   -3.1983 C.3     1  LIG1      -0.3200000000000003
     18 C           4.0831   -0.0403   -0.9153 C.2     1  LIG1      -0.16999999999999993
     19 C           2.9749   -0.5676    1.3107 C.3     1  LIG1      -0.3600000000000003
     20 C           1.0388   -1.5482    0.1028 C.2     1  LIG1      -0.17999999999999972
     21 C          -1.1735   -2.0546   -1.0617 C.3     1  LIG1      -0.3600000000000003
     22 C          -1.2127    0.2563   -1.9535 C.2     1  LIG1      -0.17999999999999972
     23 C          -0.8636    2.7564   -2.1981 C.3     1  LIG1      -0.34999999999999964
     24 C           0.2097    3.0169    0.0368 C.2     1  LIG1      -0.1900000000000004
     25 C           0.8777    3.6794    2.4026 C.3     1  LIG1      -0.34999999999999964
     26 C          -1.0515    2.4296    3.3498 C.2     1  LIG1      -0.17999999999999972
     27 C          -1.7944    1.3830    4.1500 C.3     1  LIG1      -0.3899999999999997
     28 C           3.7070   -2.3082   -4.3730 C.2     1  LIG1      0.17999999999999972
     29 C           4.8969    0.6403   -1.7367 C.2     1  LIG1      0.16999999999999993
     30 C           2.1493   -1.7423    0.8317 C.2     1  LIG1      0.17999999999999972
     31 C          -0.9710   -1.0450   -2.1690 C.2     1  LIG1      0.17999999999999972
     32 C           0.3409    2.8597   -1.2884 C.2     1  LIG1      0.16999999999999993
     33 C           0.2764    2.5436    3.2050 C.2     1  LIG1      0.17999999999999972
     34 C          -2.3447   -0.7255    2.8489 C.2     1  LIG1       0.05999999999999961
     35 C          -2.6705    0.5162    3.2722 C.2     1  LIG1       0.040000000000000036
     36 C          -3.3075   -1.4958    1.9930 C.2     1  LIG1       0.41000000000000014
     37 C          -3.9640    1.1478    2.8602 C.2     1  LIG1       0.41000000000000014
     38 C          -4.5781   -0.8619    1.5683 C.2     1  LIG1       0.2599999999999998
     39 C          -4.8676    0.4230    1.9308 C.2     1  LIG1       0.28000000000000025
     40 O          -3.0324   -2.6374    1.6257 O.2     1  LIG1      -0.5299999999999994
     41 O          -4.2740    2.2535    3.3014 O.2     1  LIG1      -0.5199999999999996
     42 O          -5.4205   -1.4938    0.7223 O.2     1  LIG1      -0.5299999999999994
     43 O          -6.0423    0.9442    1.5253 O.2     1  LIG1      -0.5199999999999996
     44 H           2.8616   -2.4747   -6.3531 H       1  LIG1       0.16000000000000003
     45 H           3.1976   -0.8013   -5.8725 H       1  LIG1       0.16000000000000003
     46 H           1.8201   -1.6690   -5.1871 H       1  LIG1       0.17000000000000004
     47 H           3.9386   -4.0237   -3.0629 H       1  LIG1       0.16000000000000003
     48 H           2.2645   -3.6858   -3.5385 H       1  LIG1       0.17000000000000004
     49 H           3.3662   -4.4216   -4.6970 H       1  LIG1       0.16000000000000003
     50 H           6.4668    1.0568   -0.2762 H       1  LIG1       0.16000000000000003
     51 H           7.0459    0.7668   -1.9191 H       1  LIG1       0.16000000000000003
     52 H           6.2663    2.2954   -1.5312 H       1  LIG1       0.16000000000000003
     53 H           2.0678   -3.9191    0.7885 H       1  LIG1       0.16000000000000003
     54 H           3.7020   -3.2489    0.8245 H       1  LIG1       0.17000000000000004
     55 H           2.7225   -3.2305    2.2862 H       1  LIG1       0.16000000000000003
     56 H          -1.2439   -2.2579   -3.9290 H       1  LIG1       0.16000000000000003
     57 H          -0.2496   -0.8237   -4.2148 H       1  LIG1       0.17000000000000004
     58 H           0.4181   -2.2134   -3.3447 H       1  LIG1       0.18000000000000005
     59 H           2.1695    3.8370   -1.9221 H       1  LIG1       0.16000000000000003
     60 H           2.3964    2.1572   -1.4332 H       1  LIG1       0.17000000000000004
     61 H           1.6526    2.5299   -2.9920 H       1  LIG1       0.16000000000000003
     62 H           1.5525    1.9520    4.8466 H       1  LIG1       0.17000000000000004
     63 H           0.9173    0.5784    3.9278 H       1  LIG1       0.17000000000000004
     64 H           2.2089    1.5734    3.2581 H       1  LIG1       0.17000000000000004
     65 H          -1.1315   -2.4897    2.9756 H       1  LIG1       0.18000000000000005
     66 H          -0.2571   -1.0492    2.4737 H       1  LIG1       0.19999999999999996
     67 H          -0.7108   -1.2421    4.1739 H       1  LIG1       0.18999999999999995
     68 H          -4.9760   -3.5078    0.3666 H       1  LIG1       0.18000000000000005
     69 H          -5.7106   -3.1665    1.9534 H       1  LIG1       0.17000000000000004
     70 H          -6.7041   -3.0315    0.4749 H       1  LIG1       0.18000000000000005
     71 H          -6.4874    2.8276    2.3241 H       1  LIG1       0.18000000000000005
     72 H          -5.3408    2.8455    0.9622 H       1  LIG1       0.18000000000000005
     73 H          -7.0605    2.4519    0.6662 H       1  LIG1       0.18000000000000005
     74 H           6.2848   -0.1960   -4.0208 H       1  LIG1          0.14
     75 H           4.9715    0.0166   -5.1643 H       1  LIG1       0.15000000000000002
     76 H           4.9016   -1.2957    0.6261 H       1  LIG1       0.15000000000000002
     77 H           4.8880    0.4066    1.0386 H       1  LIG1       0.15000000000000002
     78 H           0.6838   -3.1753   -1.2592 H       1  LIG1       0.16000000000000003
     79 H          -0.1194   -3.3580    0.2889 H       1  LIG1       0.15000000000000002
     80 H          -0.1465    1.2195   -3.5582 H       1  LIG1       0.16000000000000003
     81 H          -1.8815    1.4755   -3.5996 H       1  LIG1       0.15000000000000002
     82 H           1.9917    2.3655    1.0685 H       1  LIG1       0.17000000000000004
     83 H           2.0098    4.0431    0.5918 H       1  LIG1       0.15000000000000002
     84 H           5.2322   -2.1218   -2.9677 H       1  LIG1          0.12
     85 H           4.8325    1.8150   -3.5413 H       1  LIG1          0.13
     86 H           3.4478    0.7403   -3.3243 H       1  LIG1       0.15000000000000002
     87 H           3.1612   -0.4377   -1.3399 H       1  LIG1          0.12
     88 H           3.2106   -0.6916    2.3777 H       1  LIG1          0.14
     89 H           2.3834    0.3490    1.2198 H       1  LIG1       0.17000000000000004
     90 H           0.7523   -0.5206   -0.1226 H       1  LIG1          0.12
     91 H          -1.7773   -2.8988   -1.4242 H       1  LIG1          0.14
     92 H          -1.7432   -1.5992   -0.2481 H       1  LIG1       0.16000000000000003
     93 H          -1.5865    0.5417   -0.9682 H       1  LIG1          0.12
     94 H          -0.7979    3.5442   -2.9638 H       1  LIG1          0.14
     95 H          -1.7760    2.9590   -1.6226 H       1  LIG1          0.14
     96 H          -0.7894    3.0184    0.4721 H       1  LIG1          0.13
     97 H           1.7350    4.0899    2.9552 H       1  LIG1       0.15000000000000002
     98 H           0.1527    4.4959    2.2968 H       1  LIG1       0.15000000000000002
     99 H          -1.6969    3.1690    2.8783 H       1  LIG1          0.14
    100 H          -1.1049    0.7636    4.7247 H       1  LIG1       0.17000000000000004
    101 H          -2.4456    1.9008    4.8642 H       1  LIG1       0.17000000000000004
@<TRIPOS>BOND
     1    44     1    1
     2    45     1    1
     3     1    46    1
     4     1    28    1
     5    75    11    1
     6    49     2    1
     7    28     2    1
     8    28    16    2
     9    57     5    1
    10    11    74    1
    11    11    16    1
    12    11    17    1
    13    56     5    1
    14     2    48    1
    15     2    47    1
    16    16    84    1
    17    81    14    1
    18    80    14    1
    19    85    17    1
    20     5    58    1
    21     5    31    1
    22    86    17    1
    23    17    29    1
    24    61     6    1
    25    94    23    1
    26    14    23    1
    27    14    22    1
    28    23    95    1
    29    23    32    1
    30    31    22    2
    31    31    21    1
    32    22    93    1
    33     6    59    1
    34     6    60    1
    35     6    32    1
    36    51     3    1
    37    29     3    1
    38    29    18    2
    39    52     3    1
    40    91    21    1
    41    87    18    1
    42     3    50    1
    43    32    24    2
    44    78    13    1
    45    21    13    1
    46    21    92    1
    47    18    12    1
    48    13    20    1
    49    13    79    1
    50    90    20    1
    51    24    96    1
    52    24    15    1
    53    20    30    2
    54    68     9    1
    55    70     9    1
    56    12    76    1
    57    12    77    1
    58    12    19    1
    59    83    15    1
    60    73    10    1
    61    42     9    1
    62    42    38    1
    63    53     4    1
    64    54     4    1
    65    30     4    1
    66    30    19    1
    67     9    69    1
    68    72    10    1
    69    15    82    1
    70    15    25    1
    71     4    55    1
    72    89    19    1
    73    19    88    1
    74    10    43    1
    75    10    71    1
    76    43    39    1
    77    38    39    2
    78    38    36    1
    79    40    36    2
    80    39    37    1
    81    36    34    1
    82    98    25    1
    83    25    97    1
    84    25    33    1
    85    66     8    1
    86    34     8    1
    87    34    35    2
    88    37    35    1
    89    37    41    2
    90    99    26    1
    91    65     8    1
    92     8    67    1
    93    33    26    2
    94    33     7    1
    95    64     7    1
    96    35    27    1
    97    26    27    1
    98     7    63    1
    99     7    62    1
   100    27   100    1
   101    27   101    1
