@<TRIPOS>MOLECULE
GYOZYWVXFNDGLU-XLPZGREQSA-L	11095397	-1441.7416775265926
 34 35 0 0 0
SMALL
MULLIKEN NwChem

@<TRIPOS>ATOM
      1 C           4.6416    2.0339   -3.2290 C.3     1  LIG1      -0.5199999999999996
      2 C           0.2703   -1.6488   -1.0217 C.3     1  LIG1       -0.33000000000000007
      3 C           2.6155    0.8785   -2.2982 C.ar    1  LIG1           0.0
      4 C          -1.5057    0.7155    1.1402 C.3     1  LIG1       -0.05999999999999961
      5 C           3.8566    1.3818   -2.1294 C.ar    1  LIG1       0.040000000000000036
      6 C          -0.8403   -1.5084    0.0306 C.3     1  LIG1       0.13999999999999968
      7 C          -1.3545   -0.0628   -0.1695 C.3     1  LIG1       0.09999999999999964
      8 C           0.5755   -0.2221   -1.5275 C.3     1  LIG1       0.28000000000000025
      9 C           4.4778    1.2685   -0.7860 C.ar    1  LIG1       0.46999999999999975
     10 C           2.5014    0.2411    0.0558 C.ar    1  LIG1       0.6600000000000001
     11 N           3.7519    0.7115    0.2278 N.ar    1  LIG1      -0.6699999999999999
     12 N           1.9238    0.2721   -1.2774 N.ar    1  LIG1      -0.4800000000000004
     13 O          -1.8434   -2.4869   -0.1906 O.3     1  LIG1      -0.7400000000000002
     14 O           5.6459    1.6919   -0.6330 O.2     1  LIG1      -0.6600000000000001
     15 O           1.7923   -0.2479    0.9507 O.2     1  LIG1      -0.6300000000000008
     16 O          -4.5373    1.1471    1.4495 O.3     1  LIG1      -0.6999999999999993
     17 O          -4.3667   -0.6106    3.3425 O.3     1  LIG1      -0.7100000000000009
     18 O          -4.1148   -1.4136    0.9325 O.2     1  LIG1      -0.6999999999999993
     19 O          -2.3016    0.0160    2.0995 O.3     1  LIG1      -0.5800000000000001
     20 O          -0.4073    0.6479   -0.9845 O.3     1  LIG1      -0.5399999999999991
     21 P          -3.9268   -0.1846    1.7921 P.3     1  LIG1       1.0600000000000005
     22 H           4.9093    3.0660   -2.9635 H       1  LIG1       0.15000000000000002
     23 H           5.5968    1.5152   -3.3903 H       1  LIG1       0.15000000000000002
     24 H           4.0851    2.0504   -4.1776 H       1  LIG1       0.15000000000000002
     25 H           1.1660   -2.1243   -0.6221 H       1  LIG1       0.17000000000000004
     26 H          -0.1256   -2.2537   -1.8460 H       1  LIG1       0.15000000000000002
     27 H           2.0965    0.9185   -3.2564 H       1  LIG1       0.18000000000000005
     28 H          -1.9327    1.7074    0.9416 H       1  LIG1       0.15000000000000002
     29 H          -0.5045    0.8214    1.5685 H       1  LIG1       0.16000000000000003
     30 H          -0.4101   -1.5958    1.0348 H       1  LIG1          0.13
     31 H          -2.3132   -0.1112   -0.7040 H       1  LIG1          0.14
     32 H           0.4749   -0.1931   -2.6236 H       1  LIG1       0.16000000000000003
     33 H          -2.6588   -2.1839    0.2877 H       1  LIG1       0.43999999999999995
     34 H          -4.3578    0.2207    3.8420 H       1  LIG1       0.44999999999999996
@<TRIPOS>BOND
     1    24     1    1
     2    23     1    1
     3    27     3    1
     4     1    22    1
     5     1     5    1
     6    32     8    1
     7     3     5   ar
     8     3    12   ar
     9     5     9   ar
    10    26     2    1
    11     8    12    1
    12     8     2    1
    13     8    20    1
    14    12    10   ar
    15     2    25    1
    16     2     6    1
    17    20     7    1
    18     9    14    2
    19     9    11   ar
    20    31     7    1
    21    13     6    1
    22    13    33    1
    23     7     6    1
    24     7     4    1
    25     6    30    1
    26    10    11   ar
    27    10    15    2
    28    18    21    2
    29    28     4    1
    30     4    29    1
    31     4    19    1
    32    16    21    1
    33    21    19    1
    34    21    17    1
    35    17    34    1
