@<TRIPOS>MOLECULE
GZCGUPFRVQAUEE-KVTDHHQDSA-N	6044592	-687.0021317637465
 24 23 0 0 0
SMALL
MULLIKEN NwChem

@<TRIPOS>ATOM
      1 C          -1.8195   -2.5938   -0.4840 C.2     1  LIG1       0.2599999999999998
      2 C           0.3075    2.6349    0.0354 C.3     1  LIG1       -0.08999999999999986
      3 C          -0.9623   -1.3705   -0.8207 C.3     1  LIG1       0.03000000000000025
      4 C           0.6996    1.3449   -0.7056 C.3     1  LIG1       0.08999999999999986
      5 C          -0.4081   -0.7238    0.4656 C.3     1  LIG1       0.1200000000000001
      6 C           0.8479    0.1340    0.2484 C.3     1  LIG1       0.07000000000000028
      7 O          -1.5870   -3.7164   -0.8559 O.2     1  LIG1      -0.4299999999999997
      8 O           1.4377    3.1905    0.7062 O.3     1  LIG1      -0.6699999999999999
      9 O          -1.7501   -0.4605   -1.5868 O.3     1  LIG1      -0.6500000000000004
     10 O           1.9076    1.5683   -1.4159 O.3     1  LIG1      -0.6799999999999997
     11 O          -0.1173   -1.7817    1.3632 O.3     1  LIG1      -0.6799999999999997
     12 O           1.3486    0.5063    1.5661 O.3     1  LIG1      -0.6799999999999997
     13 H          -2.7382   -2.3479    0.1020 H       1  LIG1       0.15000000000000002
     14 H          -0.0131    3.3896   -0.6869 H       1  LIG1       0.17000000000000004
     15 H          -0.5353    2.4554    0.7260 H       1  LIG1       0.16000000000000003
     16 H          -0.1484   -1.7006   -1.4711 H       1  LIG1       0.18000000000000005
     17 H          -0.0709    1.1027   -1.4438 H       1  LIG1       0.17000000000000004
     18 H          -1.2096   -0.0770    0.8835 H       1  LIG1       0.15000000000000002
     19 H           1.6312   -0.5085   -0.1635 H       1  LIG1       0.17000000000000004
     20 H           1.7826    2.4900    1.2894 H       1  LIG1       0.43000000000000005
     21 H          -2.5134   -0.1899   -1.0487 H       1  LIG1       0.43999999999999995
     22 H           2.3963    2.2334   -0.8975 H       1  LIG1       0.42000000000000004
     23 H           0.5923   -1.4695    1.9510 H       1  LIG1       0.43000000000000005
     24 H           0.5996    0.8761    2.0666 H       1  LIG1       0.44999999999999996
@<TRIPOS>BOND
     1     9    21    1
     2     9     3    1
     3    16     3    1
     4    17     4    1
     5    10    22    1
     6    10     4    1
     7     7     1    2
     8     3     1    1
     9     3     5    1
    10     4     2    1
    11     4     6    1
    12    14     2    1
    13     1    13    1
    14    19     6    1
    15     2     8    1
    16     2    15    1
    17     6     5    1
    18     6    12    1
    19     5    18    1
    20     5    11    1
    21     8    20    1
    22    11    23    1
    23    12    24    1
