@<TRIPOS>MOLECULE
GZCGUPFRVQAUEE-SLPGGIOYSA-N	6044593	-687.0104071845669
 24 23 0 0 0
SMALL
MULLIKEN NwChem

@<TRIPOS>ATOM
      1 C          -2.3456    0.1149   -1.0008 C.2     1  LIG1       0.23000000000000043
      2 C           2.1507    0.9868   -0.0299 C.3     1  LIG1       -0.07000000000000028
      3 C          -1.7316    0.9276    0.1215 C.3     1  LIG1       0.04999999999999982
      4 C           1.2015   -0.0171   -0.7060 C.3     1  LIG1       0.08999999999999986
      5 C          -0.7745    0.1003    1.0153 C.3     1  LIG1       0.08000000000000007
      6 C           0.2816   -0.7485    0.2903 C.3     1  LIG1       0.11000000000000032
      7 O          -2.2717    0.4695   -2.1592 O.2     1  LIG1      -0.4399999999999995
      8 O           3.1900    0.3022    0.6656 O.3     1  LIG1      -0.6799999999999997
      9 O          -1.0630    2.0549   -0.3848 O.3     1  LIG1      -0.6600000000000001
     10 O           1.9566   -0.9682   -1.4363 O.3     1  LIG1      -0.6799999999999997
     11 O          -1.5126   -0.7480    1.9079 O.3     1  LIG1      -0.6699999999999999
     12 O           1.0993   -1.3696    1.2896 O.3     1  LIG1      -0.6799999999999997
     13 H          -2.8860   -0.8107   -0.7140 H       1  LIG1       0.18000000000000005
     14 H           2.6429    1.5826   -0.8040 H       1  LIG1       0.16000000000000003
     15 H           1.5948    1.6753    0.6223 H       1  LIG1       0.15000000000000002
     16 H          -2.5648    1.2249    0.7839 H       1  LIG1       0.18999999999999995
     17 H           0.5666    0.5104   -1.4226 H       1  LIG1       0.15000000000000002
     18 H          -0.2683    0.8163    1.6683 H       1  LIG1       0.18000000000000005
     19 H          -0.2403   -1.5326   -0.2898 H       1  LIG1       0.15000000000000002
     20 H           2.7398   -0.2696    1.3149 H       1  LIG1       0.43000000000000005
     21 H          -1.2654    2.0866   -1.3402 H       1  LIG1       0.43000000000000005
     22 H           2.7531   -1.1211   -0.8953 H       1  LIG1       0.42000000000000004
     23 H          -1.9154   -1.4637    1.3878 H       1  LIG1       0.43999999999999995
     24 H           0.4990   -1.6279    2.0106 H       1  LIG1       0.43000000000000005
@<TRIPOS>BOND
     1     7     1    2
     2    10    22    1
     3    10     4    1
     4    17     4    1
     5    21     9    1
     6     1    13    1
     7     1     3    1
     8    14     2    1
     9     4     2    1
    10     4     6    1
    11     9     3    1
    12    19     6    1
    13     2    15    1
    14     2     8    1
    15     3    16    1
    16     3     5    1
    17     6     5    1
    18     6    12    1
    19     8    20    1
    20     5    18    1
    21     5    11    1
    22    12    24    1
    23    23    11    1
