@<TRIPOS>MOLECULE
HAAZLUGHYHWQIW-KVQBGUIXSA-J	11095396	-2664.605030615504
 43 44 0 0 0
SMALL
MULLIKEN NwChem

@<TRIPOS>ATOM
      1 C          -8.3635   -1.9666   -1.4906 C.3     1  LIG1       -0.2999999999999998
      2 C          -6.4204   -4.2510    0.4469 C.3     1  LIG1       -0.04999999999999982
      3 C          -7.7519    0.3129    0.8857 C.ar    1  LIG1       0.17999999999999972
      4 C          -7.9752   -3.4526   -1.4816 C.3     1  LIG1       0.09999999999999964
      5 C          -7.8118   -3.7591    0.0375 C.3     1  LIG1       0.09999999999999964
      6 C          -8.9172   -1.7373   -0.0766 C.3     1  LIG1       0.2699999999999996
      7 C          -9.3241    1.7744    0.7699 C.ar    1  LIG1       0.08000000000000007
      8 C          -9.8535    0.5899    0.3099 C.ar    1  LIG1       0.5800000000000001
      9 C         -10.1867    2.9824    0.7886 C.ar    1  LIG1       0.4800000000000004
     10 C         -11.9708    1.6604   -0.1527 C.ar    1  LIG1       0.5800000000000001
     11 N         -13.1820    1.5686   -0.6529 N.pl3   1  LIG1      -0.8200000000000003
     12 N          -7.9950    1.5779    1.1325 N.ar    1  LIG1      -0.5899999999999999
     13 N         -11.1602    0.4462   -0.0812 N.ar    1  LIG1        -0.75
     14 N         -11.4662    2.8187    0.3174 N.ar    1  LIG1      -0.6699999999999999
     15 N          -8.8655   -0.3640    0.3928 N.ar    1  LIG1      -0.5099999999999998
     16 O          -9.0027   -4.2227   -2.0653 O.3     1  LIG1      -0.7300000000000004
     17 O          -9.7630    4.0760    1.2052 O.2     1  LIG1      -0.6699999999999999
     18 O          70.8417   26.1801    4.4100 O.3     2  LIG2      -0.6500000000000004
     19 O          68.7231   27.6749    4.1112 O.3     2  LIG2      -0.6500000000000004
     20 O          70.2805   28.0169    6.1747 O.2     2  LIG2      -0.6500000000000004
     21 O          -7.4431   -6.9244    0.9576 O.3     1  LIG1      -0.6799999999999997
     22 O          -7.8078   -6.5920   -1.6194 O.2     1  LIG1      -0.7400000000000002
     23 O          -6.1433   -7.9574   -3.3000 O.3     1  LIG1        -0.75
     24 O          -6.5058  -10.0101   -1.7401 O.3     1  LIG1      -0.6899999999999995
     25 O          -5.9546   -5.2995   -0.3779 O.3     1  LIG1      -0.5899999999999999
     26 O          -8.1002   -2.5323    0.7588 O.3     1  LIG1      -0.5600000000000005
     27 O          -4.0914   -9.1217   -2.2934 O.2     1  LIG1      -0.6799999999999997
     28 O          -5.6604   -7.7327   -0.7875 O.3     1  LIG1      -0.6600000000000001
     29 P          69.9490   27.2910    4.8979 P.3     2  LIG2       0.9499999999999993
     30 P          -6.8617   -6.7318   -0.4140 P.3     1  LIG1       1.1500000000000004
     31 P          -5.5590   -8.8894   -2.0720 P.3     1  LIG1       1.0500000000000007
     32 H          -7.4852   -1.3239   -1.6149 H       1  LIG1       0.17000000000000004
     33 H          -9.0847   -1.7435   -2.2818 H       1  LIG1       0.17000000000000004
     34 H          -5.7139   -3.4149    0.3366 H       1  LIG1       0.16000000000000003
     35 H          -6.4459   -4.5539    1.5026 H       1  LIG1       0.15000000000000002
     36 H          -6.8290   -0.2202    1.0583 H       1  LIG1       0.18999999999999995
     37 H          -7.0188   -3.6230   -1.9956 H       1  LIG1          0.14
     38 H          -8.5575   -4.5131    0.3121 H       1  LIG1       0.16000000000000003
     39 H          -9.9706   -2.0619   -0.0177 H       1  LIG1       0.17000000000000004
     40 H         -13.3586    0.5868   -0.9003 H       1  LIG1          0.28
     41 H         -11.4082   -0.3065   -0.7095 H       1  LIG1          0.37
     42 H          -8.6834   -5.1662   -1.9647 H       1  LIG1       0.43999999999999995
     43 H          -6.9003   -7.4434   -2.9194 H       1  LIG1       0.44999999999999996
@<TRIPOS>BOND
     1    23    43    1
     2    23    31    1
     3    27    31    2
     4    33     1    1
     5    31    24    1
     6    31    28    1
     7    16    42    1
     8    16     4    1
     9    37     4    1
    10    22    30    2
    11    32     1    1
    12     1     4    1
    13     1     6    1
    14     4     5    1
    15    40    11    1
    16    28    30    1
    17    41    13    1
    18    11    10    1
    19    30    25    1
    20    30    21    1
    21    25     2    1
    22    10    13   ar
    23    10    14   ar
    24    13     8   ar
    25     6    39    1
    26     6    15    1
    27     6    26    1
    28     5    38    1
    29     5     2    1
    30     5    26    1
    31     8    15   ar
    32     8     7   ar
    33    14     9   ar
    34    34     2    1
    35    15     3   ar
    36     2    35    1
    37     7     9   ar
    38     7    12   ar
    39     9    17    2
    40     3    36    1
    41     3    12   ar
    42    19    29    1
    43    18    29    1
    44    29    20    2
