@<TRIPOS>MOLECULE
HAEJPQIATWHALX-KQYNXXCUSA-J	11095395	-2684.5493335493425
 42 44 0 0 0
SMALL
MULLIKEN NwChem

@<TRIPOS>ATOM
      1 C          -0.2197    1.6286   -0.3839 C.3     1  LIG1       -0.05999999999999961
      2 C          -6.0411   -3.5424   -1.6180 C.ar    1  LIG1       0.1299999999999999
      3 C          -3.5121   -0.1372   -2.5726 C.ar    1  LIG1       0.17999999999999972
      4 C          -0.5867    0.1668   -0.1436 C.3     1  LIG1       0.1200000000000001
      5 C          -5.2068   -1.3968   -2.9368 C.ar    1  LIG1       0.09999999999999964
      6 C          -0.1498   -0.7829   -1.2728 C.3     1  LIG1       0.08000000000000007
      7 C          -1.1405   -1.9593   -1.0992 C.3     1  LIG1       0.08999999999999986
      8 C          -4.5544   -1.9270   -1.8164 C.ar    1  LIG1       0.4800000000000004
      9 C          -6.4149   -2.0540   -3.4185 C.ar    1  LIG1       0.45999999999999996
     10 C          -2.4178   -1.2699   -0.5668 C.3     1  LIG1       0.2599999999999998
     11 N          -4.9209   -3.0141   -1.0987 N.ar    1  LIG1      -0.5899999999999999
     12 N          -6.7846   -3.1803   -2.6625 N.ar    1  LIG1      -0.5700000000000003
     13 N          -4.5313   -0.2667   -3.3948 N.ar    1  LIG1      -0.5899999999999999
     14 N          -3.4609   -1.1036   -1.5887 N.ar    1  LIG1         -0.5
     15 O           1.1579   -1.2728   -1.1691 O.3     1  LIG1      -0.7400000000000002
     16 O          -0.6175   -2.8435   -0.1257 O.3     1  LIG1      -0.6999999999999993
     17 O          -7.0903   -1.6890   -4.4036 O.2     1  LIG1      -0.6799999999999997
     18 O           4.5255   -0.3285    3.7853 O.3     1  LIG1      -0.7699999999999996
     19 O           6.6165    0.9669    3.0451 O.3     1  LIG1      -0.6899999999999995
     20 O           5.8797   -1.1715    1.7263 O.2     1  LIG1      -0.6999999999999993
     21 O           1.5881    3.9110   -0.3194 O.2     1  LIG1      -0.7100000000000009
     22 O           0.8068    4.3022    2.1651 O.3     1  LIG1      -0.6699999999999999
     23 O           2.2770   -0.1369    2.3053 O.3     1  LIG1      -0.7200000000000006
     24 O           2.6494    0.5465   -0.1755 O.2     1  LIG1      -0.7200000000000006
     25 O          -0.1028    2.3309    0.8416 O.3     1  LIG1      -0.5999999999999996
     26 O          -2.0374    0.0060   -0.0879 O.3     1  LIG1      -0.5500000000000007
     27 O           4.4707    1.0279    1.6059 O.3     1  LIG1      -0.6600000000000001
     28 O           2.3766    2.3678    1.6383 O.3     1  LIG1      -0.6400000000000006
     29 P           5.5288    0.0551    2.5331 P.3     1  LIG1       1.0399999999999991
     30 P           1.1948    3.3871    1.0373 P.3     1  LIG1       1.0999999999999996
     31 P           2.8798    0.8388    1.3078 P.3     1  LIG1       1.1799999999999997
     32 H          -1.0121    2.0800   -1.0077 H       1  LIG1       0.16000000000000003
     33 H           0.7196    1.6712   -0.9406 H       1  LIG1       0.17000000000000004
     34 H          -6.4025   -4.4318   -1.0819 H       1  LIG1          0.13
     35 H          -2.7725    0.6521   -2.5944 H       1  LIG1       0.19999999999999996
     36 H          -0.1386   -0.1639    0.8010 H       1  LIG1       0.15000000000000002
     37 H          -0.3318   -0.2909   -2.2476 H       1  LIG1       0.16000000000000003
     38 H          -1.3525   -2.4939   -2.0385 H       1  LIG1       0.16000000000000003
     39 H          -2.8637   -1.8877    0.2208 H       1  LIG1       0.17000000000000004
     40 H           1.7718   -0.5740   -0.7120 H       1  LIG1          0.47
     41 H           0.3355   -2.5877   -0.1086 H       1  LIG1       0.42000000000000004
     42 H           3.6079   -0.3977    3.3980 H       1  LIG1       0.44999999999999996
@<TRIPOS>BOND
     1    17     9    2
     2     9     5   ar
     3     9    12   ar
     4    13     5   ar
     5    13     3   ar
     6     5     8   ar
     7    12     2   ar
     8    35     3    1
     9     3    14   ar
    10    37     6    1
    11    38     7    1
    12     8    14   ar
    13     8    11   ar
    14     2    11   ar
    15     2    34    1
    16    14    10    1
    17     6    15    1
    18     6     7    1
    19     6     4    1
    20    15    40    1
    21     7    10    1
    22     7    16    1
    23    32     1    1
    24    33     1    1
    25    10    26    1
    26    10    39    1
    27     1     4    1
    28     1    25    1
    29    21    30    2
    30    24    31    2
    31     4    26    1
    32     4    36    1
    33    16    41    1
    34    25    30    1
    35    30    28    1
    36    30    22    1
    37    31    27    1
    38    31    28    1
    39    31    23    1
    40    27    29    1
    41    20    29    2
    42    29    19    1
    43    29    18    1
    44    42    18    1
