@<TRIPOS>MOLECULE
HCOOTBJPHHNRCV-AQTSNUJDSA-N	6044599	-1283.7318409650882
 79 82 0 0 0
SMALL
MULLIKEN NwChem

@<TRIPOS>ATOM
      1 C           3.7668    3.0194   -0.9918 C.3     1  LIG1      -0.45999999999999996
      2 C           1.4413    3.4417   -0.0990 C.3     1  LIG1      -0.45999999999999996
      3 C           0.8450   -0.4518   -4.9733 C.3     1  LIG1      -0.4800000000000004
      4 C          -0.1957   -3.5520   -1.6205 C.3     1  LIG1      -0.4900000000000002
      5 C          -3.8819    0.4503    0.6166 C.3     1  LIG1      -0.4800000000000004
      6 C           0.2563    0.3784    4.7378 C.3     1  LIG1      -0.4800000000000004
      7 C           2.4935    1.8833   -3.5732 C.3     1  LIG1      -0.28000000000000025
      8 C           1.7166    2.6622   -2.4913 C.3     1  LIG1      -0.2599999999999998
      9 C           2.5901    0.3665   -3.3219 C.3     1  LIG1      -0.28000000000000025
     10 C           0.0592   -1.8661    1.7322 C.2     1  LIG1      -0.2599999999999998
     11 C           2.4331   -2.2403   -1.9860 C.3     1  LIG1      -0.3099999999999996
     12 C           2.0495   -1.8443   -0.5284 C.3     1  LIG1      -0.29000000000000004
     13 C          -0.6861   -1.9989    3.0349 C.3     1  LIG1      -0.3099999999999996
     14 C          -1.8424   -0.3951   -1.2593 C.3     1  LIG1      -0.2999999999999998
     15 C          -1.7431    1.3798    1.5044 C.3     1  LIG1      -0.33000000000000007
     16 C          -1.3432   -1.4282   -2.2814 C.3     1  LIG1      -0.3200000000000003
     17 C          -2.8073   -0.6574    2.5460 C.3     1  LIG1      -0.2999999999999998
     18 C          -1.9832    1.1958    4.7438 C.3     1  LIG1       0.040000000000000036
     19 C           2.2911    2.5905   -1.0569 C.3     1  LIG1      -0.08000000000000007
     20 C           1.2609   -0.3994   -3.4936 C.3     1  LIG1      -0.08000000000000007
     21 C          -0.3575   -1.3969    0.5420 C.2     1  LIG1      0.1299999999999999
     22 C           1.2259   -1.8467   -2.8817 C.3     1  LIG1      -0.09999999999999964
     23 C           0.5960   -1.3365   -0.6345 C.3     1  LIG1      -0.16999999999999993
     24 C          -1.7853   -0.9151    0.1997 C.3     1  LIG1      -0.16000000000000014
     25 C          -1.6157   -0.8570    3.4852 C.3     1  LIG1      -0.08000000000000007
     26 C          -0.5994    1.3719    2.5435 C.3     1  LIG1       0.1299999999999999
     27 C           0.0295   -2.0488   -1.8952 C.3     1  LIG1      0.09999999999999964
     28 C          -2.5056    0.0576    1.2117 C.3     1  LIG1      0.11000000000000032
     29 C          -0.9757    0.5329    3.8046 C.3     1  LIG1       -0.03000000000000025
     30 O          -1.9396    2.5130    4.5861 O.3     1  LIG1         -0.5
     31 O           0.6756    1.0431    1.9918 O.3     1  LIG1      -0.6999999999999993
     32 H           3.8869    4.0410   -1.3747 H       1  LIG1          0.14
     33 H           4.4178    2.3652   -1.5852 H       1  LIG1       0.15000000000000002
     34 H           4.1349    3.0046    0.0422 H       1  LIG1          0.14
     35 H           1.5418    4.5089   -0.3392 H       1  LIG1          0.13
     36 H           0.3805    3.1821   -0.1734 H       1  LIG1       0.15000000000000002
     37 H           1.7381    3.2828    0.9432 H       1  LIG1          0.14
     38 H           1.5902   -0.9907   -5.5741 H       1  LIG1          0.14
     39 H          -0.1112   -0.9707   -5.0962 H       1  LIG1       0.15000000000000002
     40 H           0.7304    0.5502   -5.4016 H       1  LIG1       0.15000000000000002
     41 H          -0.5650   -4.0459   -2.5271 H       1  LIG1          0.14
     42 H           0.7073   -4.0779   -1.2936 H       1  LIG1       0.15000000000000002
     43 H          -0.9471   -3.6930   -0.8355 H       1  LIG1       0.15000000000000002
     44 H          -4.4254   -0.4283    0.2496 H       1  LIG1       0.15000000000000002
     45 H          -4.4988    0.9259    1.3856 H       1  LIG1       0.15000000000000002
     46 H          -3.7922    1.1635   -0.2081 H       1  LIG1       0.15000000000000002
     47 H           0.0215   -0.2632    5.5938 H       1  LIG1       0.16000000000000003
     48 H           1.0803   -0.0601    4.1729 H       1  LIG1       0.17000000000000004
     49 H           0.5934    1.3504    5.1119 H       1  LIG1       0.15000000000000002
     50 H           2.0398    2.0791   -4.5523 H       1  LIG1          0.13
     51 H           3.5111    2.2861   -3.6372 H       1  LIG1          0.13
     52 H           0.6725    2.3111   -2.4544 H       1  LIG1          0.14
     53 H           1.6641    3.7189   -2.7957 H       1  LIG1          0.12
     54 H           3.3450   -0.0687   -3.9907 H       1  LIG1          0.12
     55 H           2.9709    0.2261   -2.3063 H       1  LIG1       0.15000000000000002
     56 H           1.0886   -2.2167    1.7787 H       1  LIG1       0.15000000000000002
     57 H           2.5815   -3.3215   -2.0472 H       1  LIG1          0.14
     58 H           3.3741   -1.7952   -2.3098 H       1  LIG1          0.14
     59 H           2.7072   -1.0743   -0.1120 H       1  LIG1          0.14
     60 H           2.1314   -2.7171    0.1268 H       1  LIG1       0.15000000000000002
     61 H           0.0505   -2.1876    3.8250 H       1  LIG1       0.15000000000000002
     62 H          -1.3070   -2.9096    2.9935 H       1  LIG1       0.15000000000000002
     63 H          -1.2725    0.5398   -1.3439 H       1  LIG1       0.15000000000000002
     64 H          -2.8721   -0.1485   -1.5233 H       1  LIG1       0.15000000000000002
     65 H          -2.4879    2.0946    1.8809 H       1  LIG1          0.14
     66 H          -1.3495    1.8076    0.5752 H       1  LIG1       0.15000000000000002
     67 H          -1.3248   -0.9703   -3.2749 H       1  LIG1       0.15000000000000002
     68 H          -2.0933   -2.2277   -2.3413 H       1  LIG1          0.14
     69 H          -3.5427   -0.0485    3.0943 H       1  LIG1          0.13
     70 H          -3.2991   -1.6216    2.3473 H       1  LIG1          0.13
     71 H          -2.5467    2.9016    5.2394 H       1  LIG1          0.47
     72 H           2.2195    1.5512   -0.7012 H       1  LIG1          0.14
     73 H           0.5007    0.1954   -2.9758 H       1  LIG1          0.14
     74 H           1.1524   -2.5546   -3.7172 H       1  LIG1          0.12
     75 H           0.6710   -0.2707   -0.8932 H       1  LIG1       0.16000000000000003
     76 H          -2.4068   -1.8276    0.2132 H       1  LIG1       0.15000000000000002
     77 H          -2.0333   -1.1886    4.4459 H       1  LIG1          0.12
     78 H          -0.4649    2.4086    2.8629 H       1  LIG1          0.13
     79 H           0.6220    0.1264    1.6702 H       1  LIG1       0.42000000000000004
@<TRIPOS>BOND
     1    38     3    1
     2    40     3    1
     3    39     3    1
     4     3    20    1
     5    50     7    1
     6    54     9    1
     7    74    22    1
     8    51     7    1
     9     7     9    1
    10     7     8    1
    11    20     9    1
    12    20    73    1
    13    20    22    1
    14     9    55    1
    15    67    16    1
    16    22    11    1
    17    22    27    1
    18    53     8    1
    19    41     4    1
    20     8    52    1
    21     8    19    1
    22    68    16    1
    23    58    11    1
    24    16    27    1
    25    16    14    1
    26    57    11    1
    27    11    12    1
    28    27     4    1
    29    27    23    1
    30     4    42    1
    31     4    43    1
    32    33     1    1
    33    64    14    1
    34    32     1    1
    35    63    14    1
    36    14    24    1
    37    19     1    1
    38    19    72    1
    39    19     2    1
    40     1    34    1
    41    75    23    1
    42    23    12    1
    43    23    21    1
    44    12    59    1
    45    12    60    1
    46    35     2    1
    47    46     5    1
    48    36     2    1
    49     2    37    1
    50    24    76    1
    51    24    21    1
    52    24    28    1
    53    44     5    1
    54    21    10    2
    55    66    15    1
    56     5    28    1
    57     5    45    1
    58    28    15    1
    59    28    17    1
    60    15    65    1
    61    15    26    1
    62    79    31    1
    63    10    56    1
    64    10    13    1
    65    31    26    1
    66    70    17    1
    67    26    78    1
    68    26    29    1
    69    17    69    1
    70    17    25    1
    71    62    13    1
    72    13    25    1
    73    13    61    1
    74    25    29    1
    75    25    77    1
    76    29     6    1
    77    29    18    1
    78    48     6    1
    79    30    18    1
    80    30    71    1
    81     6    49    1
    82     6    47    1
