@<TRIPOS>MOLECULE
HCXVJBMSMIARIN-PHZDYDNGSA-N	6044600	-1208.5965844638852
 78 81 0 0 0
SMALL
MULLIKEN NwChem

@<TRIPOS>ATOM
      1 C           4.0451   -5.4065    0.9437 C.3     1  LIG1      -0.45999999999999996
      2 C           0.7172   -6.2721   -2.1165 C.3     1  LIG1      -0.46999999999999975
      3 C           3.1629   -6.7934   -2.1492 C.3     1  LIG1      -0.46999999999999975
      4 C           0.2364   -3.4761    3.2312 C.3     1  LIG1      -0.45999999999999996
      5 C          -2.8515    2.9027   -2.2076 C.3     1  LIG1      -0.4900000000000002
      6 C           0.6439   -0.6213   -0.4092 C.3     1  LIG1      -0.4900000000000002
      7 C           3.7636   -4.5354   -0.2891 C.3     1  LIG1      -0.28000000000000025
      8 C           1.3864   -3.3335    1.0411 C.2     1  LIG1      -0.09999999999999964
      9 C           1.2551   -4.0982   -0.0467 C.2     1  LIG1      -0.15000000000000036
     10 C           0.3282    4.0720   -1.0077 C.2     1  LIG1      -0.23000000000000043
     11 C           0.8782    2.8932   -0.2425 C.3     1  LIG1      -0.3099999999999996
     12 C           1.5297   -0.5830    2.5642 C.3     1  LIG1      -0.2999999999999998
     13 C           1.4804    0.9008    2.0866 C.3     1  LIG1      -0.2999999999999998
     14 C          -3.5258    5.3319   -0.3390 C.3     1  LIG1      -0.29000000000000004
     15 C          -2.3970    0.9606    0.3076 C.3     1  LIG1      -0.29000000000000004
     16 C          -3.0390    3.9401    0.1025 C.3     1  LIG1      -0.29000000000000004
     17 C          -1.7269   -0.4286    0.4909 C.3     1  LIG1      -0.2999999999999998
     18 C          -1.4608    5.6119   -1.7786 C.3     1  LIG1      -0.3600000000000003
     19 C           2.0291   -6.1689   -1.3174 C.3     1  LIG1      -0.07000000000000028
     20 C           0.2373   -2.7816    1.8506 C.3     1  LIG1      -0.13999999999999968
     21 C           2.3544   -4.6987   -0.9036 C.3     1  LIG1      -0.09999999999999964
     22 C          -0.9729    4.2779   -1.2606 C.2     1  LIG1      0.16999999999999993
     23 C          -2.3725    6.2674   -0.7214 C.3     1  LIG1       0.13999999999999968
     24 C          -0.2494    2.2725    0.5895 C.3     1  LIG1      -0.09999999999999964
     25 C           0.2188   -1.2422    2.0405 C.3     1  LIG1      -0.08999999999999986
     26 C           0.0805    1.0485    1.4687 C.3     1  LIG1      -0.11000000000000032
     27 C          -1.4368    1.9633   -0.3566 C.3     1  LIG1      -0.11000000000000032
     28 C          -2.0760    3.2687   -0.9165 C.3     1  LIG1      0.040000000000000036
     29 C          -0.2131   -0.3407    0.8437 C.3     1  LIG1      0.11000000000000032
     30 O          -2.8415    7.5467   -1.1395 O.3     1  LIG1      -0.6799999999999997
     31 H           3.2986   -5.2468    1.7279 H       1  LIG1       0.15000000000000002
     32 H           5.0318   -5.1778    1.3631 H       1  LIG1          0.14
     33 H           4.0335   -6.4732    0.6941 H       1  LIG1       0.15000000000000002
     34 H           0.7657   -5.6538   -3.0231 H       1  LIG1          0.14
     35 H           0.5420   -7.3071   -2.4315 H       1  LIG1       0.15000000000000002
     36 H          -0.1589   -5.9573   -1.5424 H       1  LIG1       0.15000000000000002
     37 H           4.0927   -6.9018   -1.5831 H       1  LIG1       0.15000000000000002
     38 H           2.8760   -7.7906   -2.5025 H       1  LIG1          0.14
     39 H           3.3786   -6.1788   -3.0333 H       1  LIG1          0.14
     40 H           1.1542   -3.2420    3.7853 H       1  LIG1       0.15000000000000002
     41 H          -0.6144   -3.1480    3.8412 H       1  LIG1          0.14
     42 H           0.1825   -4.5643    3.1197 H       1  LIG1          0.14
     43 H          -3.3787    3.7563   -2.6415 H       1  LIG1       0.16000000000000003
     44 H          -2.1654    2.5165   -2.9699 H       1  LIG1       0.15000000000000002
     45 H          -3.6015    2.1310   -2.0028 H       1  LIG1       0.15000000000000002
     46 H           0.4076   -1.6055   -0.8193 H       1  LIG1       0.15000000000000002
     47 H           0.4633    0.1158   -1.1949 H       1  LIG1       0.15000000000000002
     48 H           1.7166   -0.6187   -0.1908 H       1  LIG1          0.14
     49 H           3.9079   -3.4788   -0.0310 H       1  LIG1          0.14
     50 H           4.5129   -4.7489   -1.0592 H       1  LIG1          0.14
     51 H           2.3769   -3.1126    1.4342 H       1  LIG1          0.14
     52 H           0.2392   -4.2811   -0.3981 H       1  LIG1          0.13
     53 H           1.0414    4.8423   -1.3021 H       1  LIG1          0.12
     54 H           1.3327    2.1530   -0.9170 H       1  LIG1       0.15000000000000002
     55 H           1.6916    3.2403    0.4089 H       1  LIG1          0.14
     56 H           2.4180   -1.0802    2.1629 H       1  LIG1          0.14
     57 H           1.5967   -0.6604    3.6541 H       1  LIG1          0.14
     58 H           1.6503    1.6130    2.9017 H       1  LIG1          0.13
     59 H           2.2578    1.0879    1.3380 H       1  LIG1          0.14
     60 H          -4.1958    5.2394   -1.2069 H       1  LIG1          0.14
     61 H          -4.1164    5.7999    0.4572 H       1  LIG1          0.14
     62 H          -3.3145    0.8394   -0.2792 H       1  LIG1          0.14
     63 H          -2.7130    1.3537    1.2828 H       1  LIG1          0.14
     64 H          -2.5214    4.0392    1.0653 H       1  LIG1          0.14
     65 H          -3.9048    3.2897    0.2780 H       1  LIG1          0.14
     66 H          -1.8541   -1.0102   -0.4309 H       1  LIG1          0.13
     67 H          -2.2664   -0.9785    1.2734 H       1  LIG1          0.13
     68 H          -0.6241    6.2846   -1.9959 H       1  LIG1          0.14
     69 H          -2.0395    5.5054   -2.7091 H       1  LIG1       0.15000000000000002
     70 H           1.9112   -6.7591   -0.3972 H       1  LIG1          0.13
     71 H          -0.7005   -3.0509    1.3413 H       1  LIG1          0.13
     72 H           2.3564   -4.1237   -1.8480 H       1  LIG1          0.13
     73 H          -1.7660    6.4711    0.1702 H       1  LIG1          0.14
     74 H          -0.5741    3.0662    1.2780 H       1  LIG1          0.12
     75 H          -0.5478   -1.0655    2.8100 H       1  LIG1          0.12
     76 H          -0.6142    1.1147    2.3198 H       1  LIG1          0.12
     77 H          -1.0187    1.4590   -1.2386 H       1  LIG1          0.12
     78 H          -3.3873    7.4074   -1.9301 H       1  LIG1       0.42000000000000004
@<TRIPOS>BOND
     1    39     3    1
     2    34     2    1
     3    44     5    1
     4    69    18    1
     5    43     5    1
     6    38     3    1
     7    35     2    1
     8     5    45    1
     9     5    28    1
    10     3    37    1
    11     3    19    1
    12     2    36    1
    13     2    19    1
    14    68    18    1
    15    78    30    1
    16    72    21    1
    17    18    22    1
    18    18    23    1
    19    19    21    1
    20    19    70    1
    21    53    10    1
    22    22    10    2
    23    22    28    1
    24    77    27    1
    25    60    14    1
    26    47     6    1
    27    30    23    1
    28    50     7    1
    29    10    11    1
    30    54    11    1
    31    28    27    1
    32    28    16    1
    33    21     7    1
    34    21     9    1
    35    46     6    1
    36    23    14    1
    37    23    73    1
    38    66    17    1
    39     6    48    1
    40     6    29    1
    41    52     9    1
    42    27    15    1
    43    27    24    1
    44    14    16    1
    45    14    61    1
    46     7    49    1
    47     7     1    1
    48    62    15    1
    49    11    55    1
    50    11    24    1
    51     9     8    2
    52    16    65    1
    53    16    64    1
    54    15    17    1
    55    15    63    1
    56    17    29    1
    57    17    67    1
    58    24    74    1
    59    24    26    1
    60    33     1    1
    61    29    26    1
    62    29    25    1
    63     1    32    1
    64     1    31    1
    65     8    51    1
    66     8    20    1
    67    59    13    1
    68    71    20    1
    69    26    13    1
    70    26    76    1
    71    20    25    1
    72    20     4    1
    73    25    12    1
    74    25    75    1
    75    13    12    1
    76    13    58    1
    77    56    12    1
    78    12    57    1
    79    42     4    1
    80     4    40    1
    81     4    41    1
