@<TRIPOS>MOLECULE
HCZHHEIFKROPDY-UHFFFAOYSA-L	11095393	-665.1808156131784
 20 21 0 0 0
SMALL
MULLIKEN NwChem

@<TRIPOS>ATOM
      1 C          -3.5212    0.2832   -0.0890 C.ar    1  LIG1      -0.15000000000000036
      2 C          -3.0247    1.4602   -0.6811 C.ar    1  LIG1      -0.16000000000000014
      3 C          -2.6323   -0.6767    0.3728 C.ar    1  LIG1      -0.20999999999999996
      4 C          -1.6606    1.6669   -0.8062 C.ar    1  LIG1      -0.17999999999999972
      5 C           1.0930   -1.2283    0.5912 C.ar    1  LIG1       -0.33999999999999986
      6 C          -1.2447   -0.4984    0.2622 C.ar    1  LIG1       0.03000000000000025
      7 C          -0.7561    0.6899   -0.3362 C.ar    1  LIG1       0.33999999999999986
      8 CA          1.5002   -0.0626    0.0031 C.ar    1  LIG1       0.2999999999999998
      9 C          -0.3075   -1.5441    0.7683 C.ar    1  LIG1       0.41999999999999993
     10 C           2.9703    0.3882   -0.2457 C.2     1  LIG1       0.5300000000000002
     11 N           0.5974    0.8574   -0.4418 N.ar    1  LIG1      -0.7599999999999998
     12 O          -0.7371   -2.5873    1.2932 O.2     1  LIG1      -0.6400000000000006
     13 O           3.0434    1.5174   -0.8108 O.co2   1  LIG1      -0.6699999999999999
     14 OXT         3.8551   -0.3991    0.1329 O.co2   1  LIG1      -0.6300000000000008
     15 H          -4.5942    0.1321    0.0039 H       1  LIG1       0.16000000000000003
     16 H          -3.7158    2.2178   -1.0453 H       1  LIG1       0.16000000000000003
     17 H          -2.9699   -1.5995    0.8363 H       1  LIG1       0.15000000000000002
     18 H          -1.2709    2.5743   -1.2623 H       1  LIG1       0.17000000000000004
     19 H           1.8510   -1.9252    0.9282 H       1  LIG1          0.13
     20 H           1.0763    1.6663   -0.8532 H       1  LIG1           0.37
@<TRIPOS>BOND
     1    18     4    1
     2    16     2    1
     3    20    11    1
     4    13    10   ar
     5     4     2   ar
     6     4     7   ar
     7     2     1   ar
     8    11     7   ar
     9    11     8   ar
    10     7     6   ar
    11    10     8    1
    12    10    14   ar
    13     1    15    1
    14     1     3   ar
    15     8     5   ar
    16     6     3   ar
    17     6     9   ar
    18     3    17    1
    19     5     9   ar
    20     5    19    1
    21     9    12    2
