@<TRIPOS>MOLECULE
HDSGDGSLNMIMKU-KFSSTAEESA-N	6044603	-2098.3023654468566
 125 125 0 0 0
SMALL
MULLIKEN NwChem

@<TRIPOS>ATOM
      1 C           6.9599    0.5994   -0.1723 C.3     1  LIG1            -0.54
      2 C           7.0146    1.8091    2.0605 C.3     1  LIG1      -0.5300000000000002
      3 C           3.7307    5.3969   -1.6959 C.3     1  LIG1        -0.54
      4 C           2.7748    3.3656    4.0163 C.3     1  LIG1        -0.54
      5 C           4.2877   -1.7163    1.5182 C.3     1  LIG1      -0.5499999999999998
      6 C           1.6424    1.1084   -1.9663 C.3     1  LIG1        -0.54
      7 C          -2.0537    3.0091    2.1851 C.3     1  LIG1        -0.54
      8 C          -0.4176   -2.8647    4.4675 C.3     1  LIG1      -0.5300000000000002
      9 C          -0.2383   -4.6592   -1.6814 C.3     1  LIG1        -0.54
     10 C          -4.7999   -4.5948   -3.1186 C.3     1  LIG1      -0.5499999999999998
     11 C          -6.7232    1.6553   -3.0778 C.3     1  LIG1       -0.2400000000000002
     12 C           6.3017    3.3129   -1.4903 C.3     1  LIG1      -0.3099999999999996
     13 C           2.4718    4.5092    1.0242 C.3     1  LIG1      -0.3200000000000003
     14 C           2.7126    0.3325    3.5189 C.3     1  LIG1      -0.3200000000000003
     15 C           2.2152   -1.7451   -0.7806 C.3     1  LIG1      -0.3200000000000003
     16 C          -1.2064    1.8134   -0.9657 C.3     1  LIG1      -0.2999999999999998
     17 C          -1.6565    0.1702    3.4267 C.3     1  LIG1      -0.3099999999999996
     18 C          -0.6493   -4.0811    1.6171 C.3     1  LIG1      -0.3200000000000003
     19 C           6.6049    3.0895   -0.0294 C.2     1  LIG1      -0.17999999999999972
     20 C           4.7961    3.0803   -1.8023 C.3     1  LIG1      -0.33000000000000007
     21 C           3.3406    3.6788    0.1153 C.2     1  LIG1      -0.16999999999999993
     22 C           1.4653    3.6557    1.8346 C.3     1  LIG1      -0.3600000000000003
     23 C           2.0846    1.3854    2.6318 C.2     1  LIG1      -0.1900000000000004
     24 C           2.3515   -1.1065    3.0838 C.3     1  LIG1      -0.3600000000000003
     25 C           1.9276   -1.4960    0.6797 C.2     1  LIG1      -0.17999999999999972
     26 C           1.0110   -1.3591   -1.6631 C.3     1  LIG1      -0.3600000000000003
     27 C          -0.6053    0.4294   -1.0788 C.2     1  LIG1      -0.2400000000000002
     28 C          -2.4506    1.8444   -0.0509 C.3     1  LIG1      -0.34999999999999964
     29 C          -1.9263    0.5010    1.9790 C.2     1  LIG1      -0.1900000000000004
     30 C          -2.2435   -1.2168    3.8100 C.3     1  LIG1      -0.33999999999999986
     31 C          -1.4410   -2.9197    2.1648 C.2     1  LIG1      -0.17999999999999972
     32 C          -1.4502   -4.8769    0.5527 C.3     1  LIG1      -0.33999999999999986
     33 C          -2.4010   -3.4511   -1.2683 C.2     1  LIG1      -0.16999999999999993
     34 C          -2.5052   -2.8225   -2.6526 C.3     1  LIG1      -0.41999999999999993
     35 C          -6.4377   -1.1489   -3.2672 C.ar    1  LIG1       -0.2999999999999998
     36 C           6.8575    1.9134    0.5630 C.2     1  LIG1      0.16999999999999993
     37 C           3.8849    4.0371   -1.0581 C.2     1  LIG1      0.16000000000000014
     38 C           2.1092    2.7128    2.8279 C.2     1  LIG1      0.16999999999999993
     39 C           2.8123   -1.4508    1.6855 C.2     1  LIG1      0.16999999999999993
     40 C           0.6043    0.0949   -1.5553 C.2     1  LIG1      0.1900000000000004
     41 C          -2.1292    1.7052    1.4281 C.2     1  LIG1      0.16000000000000014
     42 C          -1.3648   -2.3839    3.3929 C.2     1  LIG1      0.15000000000000036
     43 C          -1.4243   -4.2636   -0.8351 C.2     1  LIG1      0.16000000000000014
     44 C          -4.9767   -3.0929   -3.0935 C.ar    1  LIG1      0.08000000000000007
     45 C          -3.8743   -2.2215   -2.9163 C.ar    1  LIG1       0.04999999999999982
     46 C          -6.2431   -2.5358   -3.2761 C.ar    1  LIG1       0.2699999999999996
     47 C          -5.3534   -0.2945   -3.0937 C.ar    1  LIG1       0.33999999999999986
     48 C          -4.0578   -0.8332   -2.9354 C.ar    1  LIG1       0.20000000000000018
     49 O          -7.3071   -3.3925   -3.4669 O.3     1  LIG1      -0.6899999999999995
     50 O          -3.0592    0.0995   -2.8177 O.3     1  LIG1      -0.6999999999999993
     51 O          -5.4353    1.0686   -3.0528 O.3     1  LIG1      -0.5299999999999994
     52 H           7.9037    0.0896    0.0673 H       1  LIG1       0.15000000000000002
     53 H           6.8979    0.7045   -1.2582 H       1  LIG1       0.16000000000000003
     54 H           6.1556   -0.0763    0.1429 H       1  LIG1       0.17000000000000004
     55 H           6.9311    2.7853    2.5501 H       1  LIG1       0.16000000000000003
     56 H           6.2393    1.1546    2.4865 H       1  LIG1       0.17000000000000004
     57 H           7.9825    1.3668    2.3356 H       1  LIG1       0.15000000000000002
     58 H           3.0876    6.0731   -1.1274 H       1  LIG1       0.16000000000000003
     59 H           4.7081    5.8883   -1.8002 H       1  LIG1       0.16000000000000003
     60 H           3.3191    5.3066   -2.7114 H       1  LIG1       0.16000000000000003
     61 H           3.1515    2.6388    4.7413 H       1  LIG1       0.16000000000000003
     62 H           3.6214    3.9937    3.7083 H       1  LIG1       0.17000000000000004
     63 H           2.0677    4.0290    4.5358 H       1  LIG1       0.16000000000000003
     64 H           4.5657   -2.6549    2.0205 H       1  LIG1       0.16000000000000003
     65 H           4.5888   -1.8047    0.4706 H       1  LIG1       0.17000000000000004
     66 H           4.8948   -0.9278    1.9821 H       1  LIG1       0.18000000000000005
     67 H           2.1674    0.7963   -2.8777 H       1  LIG1       0.16000000000000003
     68 H           1.2225    2.1029   -2.1354 H       1  LIG1       0.16000000000000003
     69 H           2.4005    1.2140   -1.1800 H       1  LIG1       0.18000000000000005
     70 H          -3.0572    3.4432    2.3067 H       1  LIG1       0.16000000000000003
     71 H          -1.5990    2.9149    3.1754 H       1  LIG1       0.16000000000000003
     72 H          -1.4626    3.7419    1.6228 H       1  LIG1       0.17000000000000004
     73 H          -0.9751   -3.3573    5.2764 H       1  LIG1       0.16000000000000003
     74 H           0.3400   -3.5594    4.0994 H       1  LIG1       0.16000000000000003
     75 H           0.1072   -2.0175    4.9274 H       1  LIG1       0.17000000000000004
     76 H          -0.2896   -5.7283   -1.9307 H       1  LIG1       0.16000000000000003
     77 H          -0.1680   -4.0981   -2.6158 H       1  LIG1       0.17000000000000004
     78 H           0.6993   -4.5086   -1.1312 H       1  LIG1       0.18000000000000005
     79 H          -4.3285   -4.9257   -4.0555 H       1  LIG1       0.17000000000000004
     80 H          -4.1638   -4.9428   -2.2984 H       1  LIG1       0.16000000000000003
     81 H          -5.7637   -5.0991   -3.0427 H       1  LIG1       0.17000000000000004
     82 H          -7.2497    1.4520   -4.0212 H       1  LIG1       0.17000000000000004
     83 H          -7.3443    1.3060   -2.2402 H       1  LIG1       0.17000000000000004
     84 H          -6.5647    2.7316   -2.9824 H       1  LIG1       0.18000000000000005
     85 H           6.5821    4.3353   -1.7756 H       1  LIG1          0.14
     86 H           6.8964    2.6457   -2.1265 H       1  LIG1       0.15000000000000002
     87 H           3.0992    5.0817    1.7248 H       1  LIG1       0.15000000000000002
     88 H           1.9096    5.2568    0.4515 H       1  LIG1       0.15000000000000002
     89 H           3.8068    0.4479    3.5357 H       1  LIG1       0.16000000000000003
     90 H           2.3887    0.4651    4.5608 H       1  LIG1       0.15000000000000002
     91 H           3.1043   -1.1875   -1.1030 H       1  LIG1       0.16000000000000003
     92 H           2.4489   -2.8067   -0.9560 H       1  LIG1       0.16000000000000003
     93 H          -0.4617    2.5340   -0.6061 H       1  LIG1       0.16000000000000003
     94 H          -1.5131    2.1531   -1.9655 H       1  LIG1       0.15000000000000002
     95 H          -0.5752    0.1738    3.6332 H       1  LIG1       0.16000000000000003
     96 H          -2.0927    0.9358    4.0789 H       1  LIG1       0.15000000000000002
     97 H           0.2950   -3.7277    1.1755 H       1  LIG1       0.16000000000000003
     98 H          -0.3669   -4.7625    2.4274 H       1  LIG1       0.15000000000000002
     99 H           6.5205    3.9681    0.6088 H       1  LIG1          0.12
    100 H           4.6373    3.1750   -2.8866 H       1  LIG1          0.13
    101 H           4.5532    2.0456   -1.5351 H       1  LIG1       0.15000000000000002
    102 H           3.5651    2.6788    0.4904 H       1  LIG1          0.12
    103 H           0.7898    4.3397    2.3694 H       1  LIG1          0.14
    104 H           0.8457    3.0820    1.1363 H       1  LIG1       0.16000000000000003
    105 H           1.5793    1.0122    1.7413 H       1  LIG1          0.12
    106 H           2.7864   -1.8107    3.8076 H       1  LIG1          0.14
    107 H           1.2657   -1.2216    3.1358 H       1  LIG1       0.17000000000000004
    108 H           0.8817   -1.3125    0.9200 H       1  LIG1          0.13
    109 H           1.2560   -1.5916   -2.7106 H       1  LIG1          0.14
    110 H           0.1629   -1.9928   -1.3828 H       1  LIG1       0.16000000000000003
    111 H          -1.2489   -0.3877   -0.7506 H       1  LIG1       0.15000000000000002
    112 H          -2.9793    2.7916   -0.2164 H       1  LIG1          0.14
    113 H          -3.1329    1.0557   -0.3865 H       1  LIG1       0.15000000000000002
    114 H          -1.9900   -0.3634    1.3228 H       1  LIG1          0.13
    115 H          -2.3837   -1.2532    4.8985 H       1  LIG1          0.14
    116 H          -3.2417   -1.3080    3.3631 H       1  LIG1       0.15000000000000002
    117 H          -2.1691   -2.4980    1.4728 H       1  LIG1          0.13
    118 H          -1.0339   -5.8914    0.4911 H       1  LIG1       0.15000000000000002
    119 H          -2.4852   -4.9849    0.8992 H       1  LIG1       0.15000000000000002
    120 H          -3.2330   -3.2374   -0.5980 H       1  LIG1          0.14
    121 H          -1.7112   -2.0752   -2.7850 H       1  LIG1       0.17000000000000004
    122 H          -2.2949   -3.5811   -3.4191 H       1  LIG1       0.18000000000000005
    123 H          -7.4395   -0.7517   -3.3988 H       1  LIG1       0.18000000000000005
    124 H          -8.1181   -2.8661   -3.5302 H       1  LIG1       0.44999999999999996
    125 H          -2.2136   -0.3177   -2.5859 H       1  LIG1       0.43999999999999995
@<TRIPOS>BOND
     1    79    10    1
     2    82    11    1
     3   124    49    1
     4    49    46    1
     5   122    34    1
     6   123    35    1
     7    46    35   ar
     8    46    44   ar
     9    35    47   ar
    10    10    44    1
    11    10    81    1
    12    10    80    1
    13    47    51    1
    14    47    48   ar
    15    44    45   ar
    16    11    51    1
    17    11    84    1
    18    11    83    1
    19    48    45   ar
    20    48    50    1
    21    45    34    1
    22   100    20    1
    23    67     6    1
    24    50   125    1
    25   121    34    1
    26    60     3    1
    27   109    26    1
    28    34    33    1
    29    77     9    1
    30    68     6    1
    31    86    12    1
    32     6    40    1
    33     6    69    1
    34    94    16    1
    35    76     9    1
    36    20   101    1
    37    20    12    1
    38    20    37    1
    39    59     3    1
    40    85    12    1
    41     3    58    1
    42     3    37    1
    43     9    78    1
    44     9    43    1
    45    26    40    1
    46    26   110    1
    47    26    15    1
    48    40    27    2
    49    12    19    1
    50    33    43    2
    51    33   120    1
    52    53     1    1
    53    91    15    1
    54    27    16    1
    55    27   111    1
    56    37    21    2
    57    16    93    1
    58    16    28    1
    59    92    15    1
    60    43    32    1
    61    15    25    1
    62   113    28    1
    63   112    28    1
    64     1    52    1
    65     1    54    1
    66     1    36    1
    67    28    41    1
    68    19    36    2
    69    19    99    1
    70    21   102    1
    71    21    13    1
    72    88    13    1
    73    65     5    1
    74   118    32    1
    75    32   119    1
    76    32    18    1
    77    36     2    1
    78    25   108    1
    79    25    39    2
    80    13    87    1
    81    13    22    1
    82   104    22    1
    83    97    18    1
    84   114    29    1
    85    41    29    2
    86    41     7    1
    87   117    31    1
    88     5    39    1
    89     5    66    1
    90     5    64    1
    91    18    31    1
    92    18    98    1
    93    72     7    1
    94    39    24    1
    95   105    23    1
    96    22   103    1
    97    22    38    1
    98    29    17    1
    99     2    57    1
   100     2    56    1
   101     2    55    1
   102    31    42    2
   103     7    70    1
   104     7    71    1
   105    23    38    2
   106    23    14    1
   107    38     4    1
   108    24   107    1
   109    24    14    1
   110    24   106    1
   111   116    30    1
   112    42    30    1
   113    42     8    1
   114    17    95    1
   115    17    30    1
   116    17    96    1
   117    14    89    1
   118    14    90    1
   119    62     4    1
   120    30   115    1
   121     4    63    1
   122     4    61    1
   123    74     8    1
   124     8    75    1
   125     8    73    1
