@<TRIPOS>MOLECULE
HDTRYLNUVZCQOY-LIZSDCNHSA-N	6044604	-1297.6072964593004
 45 46 0 0 0
SMALL
MULLIKEN NwChem

@<TRIPOS>ATOM
      1 C           2.8794   -1.0469    1.3100 C.3     1  LIG1       -0.08000000000000007
      2 C          -0.5939    3.7160    0.8539 C.3     1  LIG1       -0.07000000000000028
      3 C           1.7188   -1.8975    1.8411 C.3     1  LIG1       0.08000000000000007
      4 C           0.1383    2.7495   -0.1180 C.3     1  LIG1       0.08999999999999986
      5 C           1.6020   -3.3528    1.3178 C.3     1  LIG1       0.08999999999999986
      6 C          -0.2176    2.8941   -1.6078 C.3     1  LIG1       0.09999999999999964
      7 C           0.8315   -3.4570   -0.0167 C.3     1  LIG1       0.08000000000000007
      8 C          -1.6117    2.3160   -1.9110 C.3     1  LIG1       0.08999999999999986
      9 C          -0.4988   -2.6783    0.0854 C.3     1  LIG1       0.09999999999999964
     10 C          -1.7094    0.8658   -1.3871 C.3     1  LIG1       0.07000000000000028
     11 C          -0.1636   -1.2470    0.4682 C.3     1  LIG1       0.33000000000000007
     12 C          -1.3095    0.8186    0.0994 C.3     1  LIG1       0.33999999999999986
     13 O           2.7436   -0.6401   -0.0604 O.3     1  LIG1      -0.6600000000000001
     14 O          -0.9482    4.9517    0.2582 O.3     1  LIG1      -0.6699999999999999
     15 O           0.9926   -4.1718    2.3057 O.3     1  LIG1      -0.6899999999999995
     16 O           0.7594    2.2723   -2.4266 O.3     1  LIG1      -0.6899999999999995
     17 O           1.5781   -3.0137   -1.1363 O.3     1  LIG1      -0.6999999999999993
     18 O          -2.5770    3.1504   -1.2611 O.3     1  LIG1      -0.6699999999999999
     19 O          -1.3348   -3.3044    1.0645 O.3     1  LIG1      -0.6799999999999997
     20 O          -0.8271    0.0046   -2.1102 O.3     1  LIG1      -0.6600000000000001
     21 O           0.4799   -1.1752    1.7308 O.3     1  LIG1      -0.5399999999999991
     22 O          -0.0186    1.3745    0.3073 O.3     1  LIG1      -0.5399999999999991
     23 O          -1.3476   -0.4889    0.6092 O.3     1  LIG1      -0.5399999999999991
     24 H           3.8142   -1.6143    1.3730 H       1  LIG1       0.18000000000000005
     25 H           2.9755   -0.1576    1.9452 H       1  LIG1       0.17000000000000004
     26 H          -1.4719    3.2161    1.2813 H       1  LIG1       0.16000000000000003
     27 H           0.0767    3.9476    1.6863 H       1  LIG1       0.17000000000000004
     28 H           1.8833   -2.0002    2.9197 H       1  LIG1       0.17000000000000004
     29 H           1.2164    2.9195   -0.0569 H       1  LIG1       0.17000000000000004
     30 H           2.6115   -3.7498    1.1594 H       1  LIG1       0.16000000000000003
     31 H          -0.2075    3.9563   -1.8606 H       1  LIG1       0.16000000000000003
     32 H           0.6065   -4.5152   -0.1813 H       1  LIG1       0.16000000000000003
     33 H          -1.7555    2.3260   -3.0018 H       1  LIG1       0.16000000000000003
     34 H          -0.9865   -2.6668   -0.8980 H       1  LIG1       0.15000000000000002
     35 H          -2.7454    0.4996   -1.4580 H       1  LIG1       0.17000000000000004
     36 H           0.4449   -0.8336   -0.3284 H       1  LIG1       0.15000000000000002
     37 H          -2.0699    1.3749    0.6586 H       1  LIG1       0.17000000000000004
     38 H           2.1180    0.1046   -0.0739 H       1  LIG1       0.44999999999999996
     39 H          -1.7184    4.7618   -0.3053 H       1  LIG1       0.43000000000000005
     40 H           0.0371   -3.9747    2.2594 H       1  LIG1       0.43000000000000005
     41 H           0.6656    1.3114   -2.2950 H       1  LIG1       0.43000000000000005
     42 H           2.0387   -2.1796   -0.9096 H       1  LIG1       0.43999999999999995
     43 H          -3.4678    2.8880   -1.5392 H       1  LIG1       0.44999999999999996
     44 H          -1.9413   -2.6216    1.3971 H       1  LIG1       0.43999999999999995
     45 H          -1.1516   -0.0931   -3.0192 H       1  LIG1       0.44999999999999996
@<TRIPOS>BOND
     1    45    20    1
     2    33     8    1
     3    16    41    1
     4    16     6    1
     5    20    10    1
     6     8     6    1
     7     8    10    1
     8     8    18    1
     9    31     6    1
    10     6     4    1
    11    43    18    1
    12    35    10    1
    13    10    12    1
    14    17    42    1
    15    17     7    1
    16    34     9    1
    17    36    11    1
    18    39    14    1
    19    32     7    1
    20     4    29    1
    21     4    22    1
    22     4     2    1
    23    38    13    1
    24    13     1    1
    25     7     9    1
    26     7     5    1
    27     9    11    1
    28     9    19    1
    29    12    22    1
    30    12    23    1
    31    12    37    1
    32    14     2    1
    33    11    23    1
    34    11    21    1
    35     2    26    1
    36     2    27    1
    37    19    44    1
    38    30     5    1
    39     1    24    1
    40     1     3    1
    41     1    25    1
    42     5     3    1
    43     5    15    1
    44    21     3    1
    45     3    28    1
    46    40    15    1
