@<TRIPOS>MOLECULE
HDYANYHVCAPMJV-LXQIFKJMSA-K	11095392	-2729.5524749247006
 56 58 0 0 0
SMALL
MULLIKEN NwChem

@<TRIPOS>ATOM
      1 C          -8.1311    1.7362    1.0188 C.ar    1  LIG1       -0.29000000000000004
      2 C          -7.1899    0.7774    1.1323 C.ar    1  LIG1       0.08000000000000007
      3 C          -1.7638    0.2786    0.0341 C.3     1  LIG1       -0.07000000000000028
      4 C          -2.9574   -0.6762    0.1184 C.3     1  LIG1       0.08999999999999986
      5 C          -8.1805    2.5638   -0.2050 C.ar    1  LIG1       0.5099999999999998
      6 C          -3.5149   -1.1813   -1.2260 C.3     1  LIG1       0.11000000000000032
      7 C           6.0383   -0.9799   -1.1401 C.3     1  LIG1       0.13999999999999968
      8 C           6.7316    0.3035   -0.7330 C.3     1  LIG1       0.08999999999999986
      9 C          -5.0090   -1.4182   -0.8841 C.3     1  LIG1       0.08000000000000007
     10 C           4.5324   -0.8203   -0.8917 C.3     1  LIG1       0.05999999999999961
     11 C           6.5654    0.4592    0.8090 C.3     1  LIG1       0.009999999999999787
     12 C          -5.2765   -0.4801    0.3165 C.3     1  LIG1       0.2699999999999996
     13 C           6.8318    1.9526    1.1685 C.2     1  LIG1          0.54
     14 C           4.2661   -0.0565    0.4486 C.3     1  LIG1       0.34999999999999964
     15 C          -6.2538    1.4269   -1.0333 C.ar    1  LIG1       0.6699999999999999
     16 N          -7.2153    2.3587   -1.1567 N.ar    1  LIG1      -0.6699999999999999
     17 N          -6.2687    0.5536    0.1376 N.ar    1  LIG1      -0.4900000000000002
     18 O          -9.0875    3.4128   -0.3355 O.2     1  LIG1      -0.6699999999999999
     19 O          -2.9433   -2.3994   -1.6883 O.3     1  LIG1      -0.7300000000000004
     20 O           6.2521   -1.3213   -2.5125 O.3     1  LIG1      -0.6899999999999995
     21 O           8.1125    0.3291   -1.0438 O.3     1  LIG1      -0.7100000000000009
     22 O          -5.1790   -2.7702   -0.4581 O.3     1  LIG1      -0.7100000000000009
     23 O           3.9916   -2.1214   -0.9741 O.3     1  LIG1      -0.7200000000000006
     24 O           5.9514    2.6178    1.7340 O.co2   1  LIG1      -0.6400000000000006
     25 O           7.9922    2.3200    0.7684 O.co2   1  LIG1      -0.6699999999999999
     26 O          -5.3477    1.2156   -1.8551 O.2     1  LIG1      -0.6300000000000008
     27 O          -0.7303   -2.7391   -0.1758 O.3     1  LIG1      -0.6600000000000001
     28 O           1.3581   -1.5642   -1.3080 O.2     1  LIG1      -0.6600000000000001
     29 O           1.5138    1.2086    0.5275 O.3     1  LIG1      -0.7200000000000006
     30 O           1.7104    0.3976    2.9844 O.2     1  LIG1      -0.5700000000000003
     31 O          -0.6521   -0.1990   -0.7493 O.3     1  LIG1      -0.5999999999999996
     32 O          -4.0160    0.0873    0.7020 O.3     1  LIG1      -0.5500000000000007
     33 O           5.3556   -0.1304    1.3236 O.3     1  LIG1      -0.5299999999999994
     34 O           3.1705   -0.6945    1.1049 O.3     1  LIG1      -0.5600000000000005
     35 O           0.7106   -1.1419    1.1806 O.3     1  LIG1      -0.6400000000000006
     36 P           0.1960   -1.5691   -0.3597 P.3     1  LIG1       1.2100000000000009
     37 P           1.7972    0.0005    1.5655 P.3     1  LIG1       1.2300000000000004
     38 H          -8.8664    1.9054    1.7995 H       1  LIG1          0.14
     39 H          -7.1067    0.1249    2.0002 H       1  LIG1       0.18999999999999995
     40 H          -1.4213    0.5373    1.0427 H       1  LIG1       0.18999999999999995
     41 H          -2.1072    1.1876   -0.4671 H       1  LIG1       0.18000000000000005
     42 H          -2.7157   -1.5434    0.7488 H       1  LIG1       0.16000000000000003
     43 H          -3.4383   -0.3958   -1.9817 H       1  LIG1       0.16000000000000003
     44 H           6.3965   -1.7960   -0.4920 H       1  LIG1          0.13
     45 H           6.2184    1.1412   -1.2430 H       1  LIG1          0.13
     46 H          -5.6657   -1.1867   -1.7266 H       1  LIG1       0.15000000000000002
     47 H           4.1282   -0.1880   -1.7011 H       1  LIG1       0.15000000000000002
     48 H           7.3663   -0.1465    1.2495 H       1  LIG1       0.16000000000000003
     49 H          -5.6381   -1.1204    1.1328 H       1  LIG1       0.17000000000000004
     50 H           4.0189    0.9930    0.2449 H       1  LIG1       0.17000000000000004
     51 H          -2.1060   -2.5755   -1.1847 H       1  LIG1       0.45999999999999996
     52 H           5.5560   -1.9824   -2.6768 H       1  LIG1       0.42000000000000004
     53 H           8.4014    1.1010   -0.4789 H       1  LIG1       0.41000000000000003
     54 H          -4.3897   -3.2050   -0.8509 H       1  LIG1       0.42000000000000004
     55 H           3.0098   -2.0253   -1.0271 H       1  LIG1       0.45999999999999996
     56 H           0.9697    0.9163   -0.2341 H       1  LIG1           0.48
@<TRIPOS>BOND
     1    52    20    1
     2    20     7    1
     3    43     6    1
     4    26    15    2
     5    46     9    1
     6    47    10    1
     7    19     6    1
     8    19    51    1
     9    28    36    2
    10    45     8    1
    11     6     9    1
    12     6     4    1
    13    16    15   ar
    14    16     5   ar
    15     7    10    1
    16     7     8    1
    17     7    44    1
    18    21     8    1
    19    21    53    1
    20    15    17   ar
    21    55    23    1
    22    23    10    1
    23    10    14    1
    24     9    22    1
    25     9    12    1
    26    54    22    1
    27    31    36    1
    28    31     3    1
    29     8    11    1
    30    41     3    1
    31    36    27    1
    32    36    35    1
    33    18     5    2
    34    56    29    1
    35     5     1   ar
    36     3     4    1
    37     3    40    1
    38     4    32    1
    39     4    42    1
    40    17    12    1
    41    17     2   ar
    42    50    14    1
    43    12    32    1
    44    12    49    1
    45    14    34    1
    46    14    33    1
    47    29    37    1
    48    25    13   ar
    49    11    13    1
    50    11    48    1
    51    11    33    1
    52     1     2   ar
    53     1    38    1
    54    34    37    1
    55     2    39    1
    56    13    24   ar
    57    35    37    1
    58    37    30    2
