@<TRIPOS>MOLECULE
HEBKCHPVOIAQTA-QWWZWVQMSA-N	6044606	-573.6918428876251
 22 21 0 0 0
SMALL
MULLIKEN NwChem

@<TRIPOS>ATOM
      1 C           0.0043   -0.2652    1.9889 C.3     1  LIG1       -0.05999999999999961
      2 C          -0.3817    1.6899   -0.6278 C.3     1  LIG1       -0.07000000000000028
      3 C          -0.3941   -1.2691    0.8952 C.3     1  LIG1       0.07000000000000028
      4 C          -0.7866    0.3186   -1.2038 C.3     1  LIG1       0.07000000000000028
      5 C          -0.0934   -0.9110   -0.5787 C.3     1  LIG1       0.08999999999999986
      6 O           1.3183    0.2861    1.8305 O.3     1  LIG1      -0.6699999999999999
      7 O           1.0312    1.8347   -0.4290 O.3     1  LIG1      -0.6899999999999995
      8 O          -1.7581   -1.6390    1.0737 O.3     1  LIG1      -0.6699999999999999
      9 O          -0.5604    0.2853   -2.6099 O.3     1  LIG1      -0.6699999999999999
     10 O           1.3232   -0.8508   -0.8132 O.3     1  LIG1      -0.6999999999999993
     11 H          -0.0883   -0.7664    2.9615 H       1  LIG1       0.16000000000000003
     12 H          -0.6851    0.5859    1.9992 H       1  LIG1       0.17000000000000004
     13 H          -0.6869    2.4446   -1.3589 H       1  LIG1       0.16000000000000003
     14 H          -0.9216    1.8935    0.3073 H       1  LIG1       0.17000000000000004
     15 H           0.1731   -2.1911    1.0733 H       1  LIG1       0.17000000000000004
     16 H          -1.8735    0.2134   -1.0804 H       1  LIG1       0.16000000000000003
     17 H          -0.4639   -1.7704   -1.1495 H       1  LIG1       0.16000000000000003
     18 H           1.8743   -0.3994    1.4212 H       1  LIG1       0.43999999999999995
     19 H           1.2201    1.5550    0.4931 H       1  LIG1       0.43999999999999995
     20 H          -2.3073   -0.8511    0.9340 H       1  LIG1       0.43999999999999995
     21 H           0.3742    0.0473   -2.7325 H       1  LIG1       0.42000000000000004
     22 H           1.5580    0.1015   -0.7915 H       1  LIG1       0.42000000000000004
@<TRIPOS>BOND
     1    21     9    1
     2     9     4    1
     3    13     2    1
     4     4    16    1
     5     4     2    1
     6     4     5    1
     7    17     5    1
     8    10    22    1
     9    10     5    1
    10     2     7    1
    11     2    14    1
    12     5     3    1
    13     7    19    1
    14     3    15    1
    15     3     8    1
    16     3     1    1
    17    20     8    1
    18    18     6    1
    19     6     1    1
    20     1    12    1
    21     1    11    1
