@<TRIPOS>MOLECULE
HEBKCHPVOIAQTA-SCDXWVJYSA-N	6044607	-573.700607809061
 22 21 0 0 0
SMALL
MULLIKEN NwChem

@<TRIPOS>ATOM
      1 C          -1.0782    1.5342    1.3581 C.3     1  LIG1       -0.09999999999999964
      2 C           0.9337   -1.3550   -1.7656 C.3     1  LIG1       -0.08000000000000007
      3 C           0.2717    0.8034    1.4789 C.3     1  LIG1       0.09999999999999964
      4 C           0.4780   -0.1402   -0.9444 C.3     1  LIG1       0.08000000000000007
      5 C           0.4686   -0.4303    0.5651 C.3     1  LIG1       0.09999999999999964
      6 O          -1.1069    2.3836    0.2187 O.3     1  LIG1      -0.6799999999999997
      7 O          -0.1000   -2.3406   -1.7928 O.3     1  LIG1      -0.6699999999999999
      8 O           1.3214    1.7288    1.2389 O.3     1  LIG1      -0.6799999999999997
      9 O          -0.8444    0.2120   -1.3886 O.3     1  LIG1      -0.6899999999999995
     10 O          -0.4852   -1.4630    0.8699 O.3     1  LIG1      -0.6699999999999999
     11 H          -1.1904    2.1889    2.2277 H       1  LIG1       0.17000000000000004
     12 H          -1.9206    0.8254    1.3692 H       1  LIG1       0.15000000000000002
     13 H           1.0967   -1.0612   -2.8069 H       1  LIG1       0.17000000000000004
     14 H           1.8768   -1.7572   -1.3684 H       1  LIG1       0.16000000000000003
     15 H           0.3659    0.4336    2.5084 H       1  LIG1       0.15000000000000002
     16 H           1.1400    0.7114   -1.1319 H       1  LIG1       0.16000000000000003
     17 H           1.4457   -0.8491    0.8293 H       1  LIG1       0.16000000000000003
     18 H          -1.2302    1.8012   -0.5572 H       1  LIG1       0.43999999999999995
     19 H          -0.2547   -2.5858   -0.8599 H       1  LIG1       0.43000000000000005
     20 H           0.9232    2.4009    0.6524 H       1  LIG1       0.42000000000000004
     21 H          -1.2082   -0.6042   -1.7839 H       1  LIG1       0.43000000000000005
     22 H          -1.3504   -1.1162    0.5927 H       1  LIG1       0.43000000000000005
@<TRIPOS>BOND
     1    13     2    1
     2     7     2    1
     3     7    19    1
     4    21     9    1
     5     2    14    1
     6     2     4    1
     7     9     4    1
     8    16     4    1
     9     4     5    1
    10    18     6    1
    11     6     1    1
    12     5    17    1
    13     5    10    1
    14     5     3    1
    15    22    10    1
    16    20     8    1
    17     8     3    1
    18     1    12    1
    19     1     3    1
    20     1    11    1
    21     3    15    1
