@<TRIPOS>MOLECULE
HEPUIGACZYVUCD-LFIKJOHQSA-O	6044609	-1278.1884971767724
 47 48 0 0 0
SMALL
MULLIKEN NwChem

@<TRIPOS>ATOM
      1 C          -1.0958   -3.5493   -1.3780 C.3     1  LIG1       -0.04999999999999982
      2 C          -1.2635   -2.1051   -1.8665 C.3     1  LIG1       0.08999999999999986
      3 C           1.1367   -0.4648   -1.7640 C.3     1  LIG1      -0.04999999999999982
      4 C          -0.4948   -1.7990   -3.1656 C.3     1  LIG1       0.09999999999999964
      5 C           0.9922   -1.4714   -2.9273 C.3     1  LIG1       0.09999999999999964
      6 C           0.8381    2.5259    2.9716 C.3     1  LIG1       0.08999999999999986
      7 C           0.3590    2.7825    1.5221 C.3     1  LIG1       0.08000000000000007
      8 C           1.2138    1.0425    3.1944 C.3     1  LIG1       0.08000000000000007
      9 C          -0.7933    1.8359    1.1645 C.3     1  LIG1       0.11000000000000032
     10 C           0.0486    0.1016    2.8051 C.3     1  LIG1       0.08000000000000007
     11 C          -0.4671    0.3533    1.3780 C.3     1  LIG1       0.09999999999999964
     12 C           0.3912   -0.9905   -0.5272 C.3     1  LIG1       0.3899999999999997
     13 N           0.5039    0.8653   -2.1159 N.4     1  LIG1       -0.7999999999999998
     14 O          -1.6899   -4.3491   -2.3903 O.3     1  LIG1      -0.6600000000000001
     15 O          -1.0159   -0.6169   -3.8076 O.3     1  LIG1      -0.6699999999999999
     16 O           1.6493   -2.6730   -2.5672 O.3     1  LIG1      -0.6600000000000001
     17 O          -0.1517    2.9878    3.8744 O.3     1  LIG1      -0.6899999999999995
     18 O           1.4095    2.6091    0.5533 O.3     1  LIG1      -0.6600000000000001
     19 O           2.4089    0.6932    2.5223 O.3     1  LIG1      -0.6899999999999995
     20 O          -1.1940    1.9899   -0.2061 O.3     1  LIG1      -0.6699999999999999
     21 O          -1.0892    0.3217    3.6580 O.3     1  LIG1      -0.6699999999999999
     22 O          -0.9749   -1.1358   -0.8428 O.3     1  LIG1      -0.5299999999999994
     23 O           0.5700   -0.0102    0.4522 O.3     1  LIG1      -0.5500000000000007
     24 H          -1.6164   -3.6380   -0.4125 H       1  LIG1       0.15000000000000002
     25 H          -0.0385   -3.8001   -1.2337 H       1  LIG1       0.16000000000000003
     26 H          -2.3314   -1.9681   -2.0679 H       1  LIG1       0.18000000000000005
     27 H           2.1849   -0.2850   -1.5166 H       1  LIG1       0.21999999999999997
     28 H          -0.5624   -2.6670   -3.8278 H       1  LIG1       0.18000000000000005
     29 H           1.3922   -1.0462   -3.8586 H       1  LIG1       0.18999999999999995
     30 H           1.7441    3.1212    3.1464 H       1  LIG1       0.15000000000000002
     31 H          -0.0240    3.8137    1.4786 H       1  LIG1       0.16000000000000003
     32 H           1.4085    0.9144    4.2665 H       1  LIG1       0.16000000000000003
     33 H          -1.6319    2.0774    1.8283 H       1  LIG1       0.17000000000000004
     34 H           0.3964   -0.9377    2.8638 H       1  LIG1       0.17000000000000004
     35 H          -1.3644   -0.2408    1.2008 H       1  LIG1       0.18999999999999995
     36 H           0.8341   -1.9434   -0.2098 H       1  LIG1       0.17000000000000004
     37 H           1.1551    1.4753   -2.6151 H       1  LIG1      0.43999999999999995
     38 H          -0.3153    0.6747   -2.7280 H       1  LIG1      0.43000000000000005
     39 H           0.1531    1.3646   -1.2604 H       1  LIG1         0.47
     40 H          -1.4494   -5.2758   -2.2360 H       1  LIG1       0.43999999999999995
     41 H          -1.9517   -0.7563   -4.0261 H       1  LIG1       0.44999999999999996
     42 H           2.5757   -2.6393   -2.8522 H       1  LIG1       0.44999999999999996
     43 H          -0.7599    2.2479    4.0455 H       1  LIG1       0.43000000000000005
     44 H           2.0817    3.2847    0.7400 H       1  LIG1       0.43999999999999995
     45 H           2.2642    0.8698    1.5771 H       1  LIG1       0.43000000000000005
     46 H          -1.4681    2.9149   -0.3312 H       1  LIG1       0.44999999999999996
     47 H          -0.9271   -0.1165    4.5089 H       1  LIG1       0.44999999999999996
@<TRIPOS>BOND
     1    41    15    1
     2    29     5    1
     3    28     4    1
     4    15     4    1
     5     4     5    1
     6     4     2    1
     7     5    16    1
     8     5     3    1
     9    42    16    1
    10    38    13    1
    11    37    13    1
    12    14    40    1
    13    14     1    1
    14    13     3    1
    15    13    39    1
    16    26     2    1
    17     2     1    1
    18     2    22    1
    19     3    27    1
    20     3    12    1
    21     1    25    1
    22     1    24    1
    23    22    12    1
    24    12    36    1
    25    12    23    1
    26    46    20    1
    27    20     9    1
    28    23    11    1
    29    18    44    1
    30    18     7    1
    31     9    11    1
    32     9     7    1
    33     9    33    1
    34    35    11    1
    35    11    10    1
    36    31     7    1
    37     7     6    1
    38    45    19    1
    39    19     8    1
    40    10    34    1
    41    10     8    1
    42    10    21    1
    43     6    30    1
    44     6     8    1
    45     6    17    1
    46     8    32    1
    47    21    47    1
    48    17    43    1
