@<TRIPOS>MOLECULE
HFJRKMMYBMWEAD-UHFFFAOYSA-N	6044610	-546.6806135204351
 37 36 0 0 0
SMALL
MULLIKEN NwChem

@<TRIPOS>ATOM
      1 C           2.4080    3.4070    3.6119 C.3     1  LIG1      -0.45999999999999996
      2 C           2.3059    3.3589    2.0831 C.3     1  LIG1      -0.2599999999999998
      3 C           2.7128    2.0075    1.4717 C.3     1  LIG1      -0.2599999999999998
      4 C           1.8870    0.7971    1.9428 C.3     1  LIG1      -0.2699999999999996
      5 C           0.3686    0.9174    1.7249 C.3     1  LIG1      -0.2699999999999996
      6 C          -0.0638    1.1871    0.2731 C.3     1  LIG1      -0.2699999999999996
      7 C           0.4241    0.1529   -0.7567 C.3     1  LIG1      -0.2699999999999996
      8 C           0.0130   -1.3009   -0.4657 C.3     1  LIG1      -0.2699999999999996
      9 C          -1.5018   -1.5361   -0.3336 C.3     1  LIG1      -0.28000000000000025
     10 C          -2.3459   -1.0859   -1.5395 C.3     1  LIG1      -0.28000000000000025
     11 C          -1.9317   -1.6915   -2.9034 C.3     1  LIG1       -0.33999999999999986
     12 C          -1.9862   -3.2020   -2.8874 C.2     1  LIG1       0.2599999999999998
     13 O          -2.8910   -3.8566   -3.3590 O.2     1  LIG1      -0.46000000000000085
     14 H           1.7106    2.7071    4.0864 H       1  LIG1       0.15000000000000002
     15 H           2.1793    4.4088    3.9929 H       1  LIG1          0.14
     16 H           3.4194    3.1443    3.9469 H       1  LIG1          0.14
     17 H           1.2812    3.6108    1.7785 H       1  LIG1          0.14
     18 H           2.9470    4.1408    1.6544 H       1  LIG1          0.13
     19 H           2.6553    2.0839    0.3775 H       1  LIG1          0.14
     20 H           3.7701    1.8175    1.7053 H       1  LIG1          0.13
     21 H           2.2602   -0.0985    1.4281 H       1  LIG1          0.14
     22 H           2.0717    0.6218    3.0107 H       1  LIG1          0.13
     23 H          -0.1087   -0.0042    2.0838 H       1  LIG1          0.14
     24 H          -0.0278    1.7212    2.3593 H       1  LIG1          0.13
     25 H          -1.1601    1.2463    0.2419 H       1  LIG1          0.14
     26 H           0.2942    2.1779   -0.0360 H       1  LIG1          0.14
     27 H           0.0534    0.4476   -1.7478 H       1  LIG1          0.14
     28 H           1.5188    0.1959   -0.8265 H       1  LIG1          0.14
     29 H           0.4172   -1.9441   -1.2597 H       1  LIG1          0.14
     30 H           0.4964   -1.6391    0.4599 H       1  LIG1          0.14
     31 H          -1.6757   -2.6035   -0.1425 H       1  LIG1          0.14
     32 H          -1.8754   -1.0120    0.5553 H       1  LIG1       0.15000000000000002
     33 H          -3.3964   -1.3424   -1.3546 H       1  LIG1       0.15000000000000002
     34 H          -2.3066    0.0063   -1.6326 H       1  LIG1       0.16000000000000003
     35 H          -2.6103   -1.3359   -3.6855 H       1  LIG1       0.16000000000000003
     36 H          -0.9108   -1.3751   -3.1545 H       1  LIG1       0.18000000000000005
     37 H          -1.1322   -3.7066   -2.3793 H       1  LIG1           0.14
@<TRIPOS>BOND
     1    35    11    1
     2    13    12    2
     3    36    11    1
     4    11    12    1
     5    11    10    1
     6    12    37    1
     7    27     7    1
     8    34    10    1
     9    10    33    1
    10    10     9    1
    11    29     8    1
    12    28     7    1
    13     7     8    1
    14     7     6    1
    15     8     9    1
    16     8    30    1
    17     9    31    1
    18     9    32    1
    19    26     6    1
    20    25     6    1
    21     6     5    1
    22    19     3    1
    23    21     4    1
    24     3    20    1
    25     3     4    1
    26     3     2    1
    27    18     2    1
    28     5     4    1
    29     5    23    1
    30     5    24    1
    31    17     2    1
    32     4    22    1
    33     2     1    1
    34     1    16    1
    35     1    15    1
    36     1    14    1
