@<TRIPOS>MOLECULE
HFYBTHCYPKEDQQ-RITPCOANSA-L	11095390	-1136.4719112927821
 24 24 0 0 0
SMALL
MULLIKEN NwChem

@<TRIPOS>ATOM
      1 C          -3.8295    0.4860   -1.2334 C.ar    1  LIG1       -0.15000000000000036
      2 C           1.0984    0.9197   -0.4444 C.3     1  LIG1       -0.04999999999999982
      3 C          -4.3034   -0.8778    0.3179 C.ar    1  LIG1       0.08000000000000007
      4 C          -2.7679    0.4494   -0.3346 C.ar    1  LIG1       0.17999999999999972
      5 C          -0.2520    0.2002   -0.4083 C.3     1  LIG1       0.1299999999999999
      6 C          -1.4493    1.1765   -0.3493 C.3     1  LIG1       0.07000000000000028
      7 N          -4.8280   -0.3601   -0.8064 N.ar    1  LIG1        -0.54
      8 N          -3.0752   -0.4353    0.6719 N.ar    1  LIG1      -0.5999999999999996
      9 O          -0.2994   -0.6254    0.7558 O.3     1  LIG1      -0.7100000000000009
     10 O          -1.3793    2.0807   -1.4678 O.3     1  LIG1      -0.6899999999999995
     11 O           3.2359    0.6518    1.5711 O.3     1  LIG1      -0.7100000000000009
     12 O           2.2914   -1.7362    1.1302 O.3     1  LIG1      -0.7599999999999998
     13 O           4.4229   -1.0201   -0.0944 O.2     1  LIG1      -0.6999999999999993
     14 O           2.1723    0.0330   -0.7101 O.3     1  LIG1      -0.6099999999999994
     15 P           3.1879   -0.4635    0.5541 P.3     1  LIG1       1.0299999999999994
     16 H          -3.9195    1.0356   -2.1677 H       1  LIG1       0.10999999999999999
     17 H           1.2563    1.4431    0.5077 H       1  LIG1          0.14
     18 H           1.0601    1.6625   -1.2535 H       1  LIG1       0.15000000000000002
     19 H          -4.8375   -1.6128    0.9194 H       1  LIG1       0.09999999999999998
     20 H          -0.3505   -0.4082   -1.3226 H       1  LIG1          0.12
     21 H          -1.3257    1.7439    0.5921 H       1  LIG1          0.12
     22 H          -1.2502   -0.8540    0.9136 H       1  LIG1       0.41000000000000003
     23 H           1.3537   -1.4488    1.1411 H       1  LIG1       0.44999999999999996
     24 H          -2.2774    2.4410   -1.5407 H       1  LIG1       0.42000000000000004
@<TRIPOS>BOND
     1    16     1    1
     2    24    10    1
     3    10     6    1
     4    20     5    1
     5    18     2    1
     6     1     7   ar
     7     1     4   ar
     8     7     3   ar
     9    14     2    1
    10    14    15    1
    11     2     5    1
    12     2    17    1
    13     5     6    1
    14     5     9    1
    15     6     4    1
    16     6    21    1
    17     4     8   ar
    18    13    15    2
    19     3     8   ar
    20     3    19    1
    21    15    12    1
    22    15    11    1
    23     9    22    1
    24    12    23    1
