@<TRIPOS>MOLECULE
HHDDCCUIIUWNGJ-UHFFFAOYSA-M	6044614	-417.1183122085383
 10 9 0 0 0
SMALL
MULLIKEN NwChem

@<TRIPOS>ATOM
      1 C           0.8402   -1.2956   -0.4227 C.3     1  LIG1       -0.11000000000000032
      2 C           0.2562   -0.3441    0.6462 C.2     1  LIG1       0.33000000000000007
      3 C          -0.6364    0.8544    0.1645 C.2     1  LIG1       0.5099999999999998
      4 O           0.8344   -0.8214   -1.7467 O.3     1  LIG1      -0.6899999999999995
      5 O           0.4343   -0.6176    1.8228 O.2     1  LIG1      -0.5099999999999998
      6 O          -0.7320    1.8353    0.9128 O.co2   1  LIG1      -0.6099999999999994
      7 O          -1.1907    0.6256   -0.9624 O.co2   1  LIG1      -0.6500000000000004
      8 H           0.2795   -2.2478   -0.3092 H       1  LIG1       0.16000000000000003
      9 H           1.8746   -1.5177   -0.1212 H       1  LIG1       0.17000000000000004
     10 H           0.0039   -0.2659   -1.7646 H       1  LIG1       0.42000000000000004
@<TRIPOS>BOND
     1    10     4    1
     2     4     1    1
     3     7     3   ar
     4     1     8    1
     5     1     9    1
     6     1     2    1
     7     3     2    1
     8     3     6   ar
     9     2     5    2
