@<TRIPOS>MOLECULE
HHKPKXCSHMJWCF-WVBDSBKLSA-K	6044615	-797.8529056675726
 21 20 0 0 0
SMALL
MULLIKEN NwChem

@<TRIPOS>ATOM
      1 C           0.8859    1.6224    1.6790 C.3     1  LIG1      -0.45999999999999996
      2 C          -0.2385   -0.7885   -1.2083 C.3     1  LIG1       -0.4299999999999997
      3 C           0.6034    0.2854    0.9670 C.3     1  LIG1       -0.17999999999999972
      4 C           1.0387   -1.0090   -2.0807 C.2     1  LIG1          0.54
      5 C           0.2625   -0.8354    2.0369 C.2     1  LIG1       0.5199999999999996
      6 C          -1.8538    0.8236    0.0525 C.2     1  LIG1       0.5099999999999998
      7 C          -0.3343    0.4556   -0.2831 C.3     1  LIG1       0.28000000000000025
      8 O           1.1608   -2.1406   -2.6264 O.co2   1  LIG1      -0.6799999999999997
      9 O           1.8576   -0.0343   -2.2445 O.co2   1  LIG1      -0.6799999999999997
     10 O          -0.6237   -1.6899    1.7714 O.co2   1  LIG1      -0.6799999999999997
     11 O           0.9820   -0.8099    3.0884 O.co2   1  LIG1      -0.6999999999999993
     12 O          -2.7330    0.4440   -0.7756 O.co2   1  LIG1      -0.6899999999999995
     13 O          -2.0653    1.5428    1.0723 O.co2   1  LIG1      -0.6799999999999997
     14 O           0.1324    1.6095   -1.0555 O.3     1  LIG1      -0.7699999999999996
     15 H          -0.0558    2.0079    2.0795 H       1  LIG1          0.13
     16 H           1.2774    2.3597    0.9652 H       1  LIG1       0.10999999999999999
     17 H           1.6042    1.4536    2.4913 H       1  LIG1       0.10999999999999999
     18 H          -0.4029   -1.6820   -0.6001 H       1  LIG1          0.13
     19 H          -1.0891   -0.7209   -1.8989 H       1  LIG1          0.12
     20 H           1.5676   -0.0410    0.5356 H       1  LIG1       0.08999999999999997
     21 H           0.9067    1.2171   -1.5387 H       1  LIG1           0.39
@<TRIPOS>BOND
     1     8     4   ar
     2     9     4   ar
     3     4     2    1
     4    19     2    1
     5    21    14    1
     6     2    18    1
     7     2     7    1
     8    14     7    1
     9    12     6   ar
    10     7     6    1
    11     7     3    1
    12     6    13   ar
    13    20     3    1
    14    16     1    1
    15     3     1    1
    16     3     5    1
    17     1    15    1
    18     1    17    1
    19    10     5   ar
    20     5    11   ar
