@<TRIPOS>MOLECULE
HHLFWLYXYJOTON-UHFFFAOYSA-M	6044616	-302.60782753034977
 6 5 0 0 0
SMALL
MULLIKEN NwChem

@<TRIPOS>ATOM
      1 C           0.6173   -0.6531    0.4042 C.2     1  LIG1       0.16999999999999993
      2 C          -0.1369    0.5171   -0.3208 C.2     1  LIG1       0.4800000000000004
      3 O           0.1322   -1.5971    0.9991 O.2     1  LIG1      -0.4499999999999993
      4 O          -1.3853    0.4758   -0.3006 O.co2   1  LIG1      -0.6500000000000004
      5 O           0.6718    1.3402   -0.8241 O.co2   1  LIG1      -0.6500000000000004
      6 H           1.7354   -0.5453    0.3293 H       1  LIG1       0.09999999999999998
@<TRIPOS>BOND
     1     5     2   ar
     2     2     4   ar
     3     2     1    1
     4     6     1    1
     5     1     3    2
