@<TRIPOS>MOLECULE
HHQOOERQSFJGEP-ZSIQDKGESA-A	11095387	-5221.857743995155
 50 45 0 0 0
SMALL
MULLIKEN NwChem

@<TRIPOS>ATOM
      1 C           2.2304   -6.0756    3.9665 C.2     1  LIG1       0.2599999999999998
      2 C          -2.2145   -6.2212    3.7036 C.2     1  LIG1       0.13999999999999968
      3 C           2.0608   -4.5931    4.3023 C.3     1  LIG1       0.08999999999999986
      4 C          -0.5769   -4.2784    3.7504 C.3     1  LIG1       0.09999999999999964
      5 C          -1.1183   -5.5784    3.2188 C.2     1  LIG1      -0.23000000000000043
      6 C           0.9240   -3.9930    3.4242 C.3     1  LIG1       0.08000000000000007
      7 O          12.6493  -36.9304   -9.5037 O.3     2  LIG2      -0.6500000000000004
      8 O          14.8068  -35.4340   -9.7093 O.2     2  LIG2      -0.6500000000000004
      9 O          13.1780  -35.6872  -11.7638 O.3     2  LIG2      -0.6500000000000004
     10 O          -4.6088   -7.3639    5.0193 O.3     1  LIG1      -0.7799999999999994
     11 O          -5.2775   -7.7171    2.5383 O.2     1  LIG1      -0.7699999999999996
     12 O          -3.9225   -9.5330    3.7678 O.3     1  LIG1      -0.7699999999999996
     13 O           2.8255   -5.0684    7.9993 O.3     1  LIG1      -0.7699999999999996
     14 O           4.2058   -3.4327    6.5525 O.3     1  LIG1      -0.7899999999999991
     15 O           3.9902   -5.9008    5.8378 O.2     1  LIG1      -0.7899999999999991
     16 O          -4.3548    6.4225  -36.1607 O.3     3  LIG3      -0.6500000000000004
     17 O          -1.9394    6.1828  -35.1260 O.3     3  LIG3      -0.6600000000000001
     18 O          -3.1513    8.5225  -35.1658 O.2     3  LIG3      -0.6500000000000004
     19 O         -20.4424   21.1304   29.6060 O.3     4  LIG4      -0.9100000000000001
     20 O         -21.6827   19.0953   30.5667 O.3     4  LIG4      -0.9100000000000001
     21 O         -22.6377   20.3755   28.5023 O.3     4  LIG4      -0.9100000000000001
     22 O          36.0644   18.0028   -7.7245 O.2     5  LIG5      -0.9000000000000004
     23 O          36.9290   15.7306   -6.9047 O.3     5  LIG5      -0.9000000000000004
     24 O          36.0594   17.4257   -5.1856 O.3     5  LIG5      -0.9000000000000004
     25 O         -29.5967   16.0110  -12.1170 O.3     6  LIG6      -0.6500000000000004
     26 O         -27.8281   17.9551  -12.2539 O.3     6  LIG6      -0.6500000000000004
     27 O          -0.1263   -1.8332    1.1839 O.2     1  LIG1      -0.6999999999999993
     28 O          -0.6547   -0.6127    3.4273 O.3     1  LIG1      -0.6899999999999995
     29 O           2.6782   -6.4942    2.9060 O.2     1  LIG1         -0.5
     30 O          -2.7679   -7.2940    3.1279 O.2     1  LIG1      -0.5999999999999996
     31 O           1.9107   -4.4032    5.6842 O.3     1  LIG1      -0.6400000000000006
     32 O          -1.2891   -3.1418    3.1244 O.3     1  LIG1      -0.6199999999999992
     33 O         -28.1852   16.6590   -9.9881 O.2     6  LIG6      -0.6500000000000004
     34 O           1.0607   -2.5668    3.4047 O.3     1  LIG1      -0.6099999999999994
     35 O         -20.5504   18.8986   28.2662 O.2     4  LIG4      -0.9000000000000004
     36 O          34.3898   16.3070   -6.7787 O.3     5  LIG5      -0.9000000000000004
     37 P          13.3870  -35.7747  -10.2280 P.3     2  LIG2       0.9600000000000009
     38 P          -4.3112   -8.0502    3.6827 P.3     1  LIG1       0.8800000000000008
     39 P           3.3593   -4.7232    6.6080 P.3     1  LIG1       0.8900000000000006
     40 P          -3.2616    6.9895  -35.2272 P.3     3  LIG3       0.9600000000000009
     41 P         -21.3270   19.8756   29.2359 P.3     4  LIG4       0.6300000000000008
     42 P          35.8612   16.8654   -6.6482 P.3     5  LIG5       0.5999999999999996
     43 P         -28.3463   16.6976  -11.5228 P.3     6  LIG6       0.9600000000000009
     44 P          -0.2919   -1.8812    2.6916 P.3     1  LIG1       1.0199999999999996
     45 H           1.8173   -6.7544    4.7366 H       1  LIG1          0.12
     46 H          -2.7090   -5.8778    4.6184 H       1  LIG1          0.13
     47 H           2.9702   -4.0884    3.9264 H       1  LIG1          0.14
     48 H          -0.7286   -4.1929    4.8347 H       1  LIG1       0.15000000000000002
     49 H          -0.6957   -5.9320    2.2763 H       1  LIG1          0.12
     50 H           1.1208   -4.3735    2.4075 H       1  LIG1       0.15000000000000002
@<TRIPOS>BOND
     1    16    40    1
     2    40    18    2
     3    40    17    1
     4    26    43    1
     5    25    43    1
     6     9    37    1
     7    43    33    2
     8    37     8    2
     9    37     7    1
    10    22    42    2
    11    23    42    1
    12    36    42    1
    13    42    24    1
    14    27    44    2
    15    49     5    1
    16    50     6    1
    17    11    38    2
    18    44    32    1
    19    44    34    1
    20    44    28    1
    21    29     1    2
    22    32     4    1
    23    30    38    1
    24    30     2    1
    25     5     2    2
    26     5     4    1
    27    34     6    1
    28     6     4    1
    29     6     3    1
    30    38    12    1
    31    38    10    1
    32     2    46    1
    33     4    48    1
    34    47     3    1
    35     1     3    1
    36     1    45    1
    37     3    31    1
    38    31    39    1
    39    15    39    2
    40    14    39    1
    41    39    13    1
    42    35    41    2
    43    21    41    1
    44    41    19    1
    45    41    20    1
