@<TRIPOS>MOLECULE
HHQOOERQSFJGEP-SLWYWOEDSA-A	11095388	-5221.849058976187
 50 45 0 0 0
SMALL
MULLIKEN NwChem

@<TRIPOS>ATOM
      1 C           2.3962   -3.1656   -5.8011 C.2     1  LIG1       0.23000000000000043
      2 C           1.4931   -2.8575   -6.9988 C.3     1  LIG1       0.08000000000000007
      3 C           4.4868   -3.8547   -7.8749 C.2     1  LIG1       0.11000000000000032
      4 C           3.0703   -1.7931   -8.7680 C.3     1  LIG1       0.13999999999999968
      5 C           1.9133   -1.5774   -7.7608 C.3     1  LIG1       0.1200000000000001
      6 C           4.2186   -2.5328   -8.0810 C.2     1  LIG1        -0.25
      7 O          -5.8627  -27.3966   30.1321 O.3     2  LIG2      -0.6500000000000004
      8 O          -8.4819  -27.6745   30.1933 O.3     2  LIG2      -0.6600000000000001
      9 O          -7.1124  -28.5289   28.1137 O.2     2  LIG2      -0.6500000000000004
     10 O         -31.1470  -18.4171   -2.3154 O.3     3  LIG3      -0.6500000000000004
     11 O         -30.4762  -20.8669   -2.9874 O.3     3  LIG3      -0.6500000000000004
     12 O         -30.0770  -18.8895   -4.6654 O.2     3  LIG3      -0.6500000000000004
     13 O           4.6474   -7.2408   -9.0829 O.2     1  LIG1      -0.7699999999999996
     14 O           3.0937   -7.1741   -7.0000 O.3     1  LIG1      -0.7699999999999996
     15 O           5.5515   -6.3445   -6.8071 O.3     1  LIG1      -0.7799999999999994
     16 O           4.0900   -0.9975  -11.6680 O.2     1  LIG1      -0.8100000000000005
     17 O           4.2473    1.3927  -10.6829 O.3     1  LIG1      -0.8000000000000007
     18 O           5.9592   -0.3786   -9.9768 O.3     1  LIG1      -0.8100000000000005
     19 O         -32.8532   27.5085   -7.1532 O.2     4  LIG4      -0.9000000000000004
     20 O         -31.8319   29.1870   -5.4438 O.3     4  LIG4      -0.9000000000000004
     21 O         -33.6124   27.4907   -4.6983 O.3     4  LIG4      -0.9000000000000004
     22 O          41.2435   15.5028    8.3572 O.3     5  LIG5      -0.9000000000000004
     23 O          41.5310   12.9762    7.9696 O.3     5  LIG5      -0.9100000000000001
     24 O          41.1341   14.5848    5.9636 O.2     5  LIG5      -0.9000000000000004
     25 O          -1.7092   -2.0945   -8.2819 O.2     1  LIG1      -0.6899999999999995
     26 O          -1.0085   -0.3007   -6.5318 O.3     1  LIG1      -0.6899999999999995
     27 O           6.4884   11.7954   29.1796 O.3     6  LIG6      -0.6500000000000004
     28 O           6.1234   12.9926   26.8668 O.2     6  LIG6      -0.6500000000000004
     29 O           2.4997   -2.4284   -4.8273 O.2     1  LIG1      -0.47000000000000064
     30 O           0.1580   -2.6223   -6.5185 O.3     1  LIG1      -0.6099999999999994
     31 O           3.7366   -4.9255   -8.1569 O.2     1  LIG1      -0.6199999999999992
     32 O           3.4675   -0.4821   -9.1739 O.3     1  LIG1      -0.6400000000000006
     33 O           0.6978   -1.1153   -8.3783 O.3     1  LIG1      -0.6099999999999994
     34 O           8.2296   11.4601   27.2374 O.3     6  LIG6      -0.6600000000000001
     35 O         -31.2175   26.6967   -5.3486 O.3     4  LIG4      -0.9000000000000004
     36 O          39.2291   14.0378    7.5918 O.3     5  LIG5      -0.9000000000000004
     37 P          -7.1840  -27.5829   29.3379 P.3     2  LIG2       0.9600000000000009
     38 P         -30.3014  -19.3465   -3.2115 P.3     3  LIG3       0.9499999999999993
     39 P           4.3277   -6.6174   -7.7090 P.3     1  LIG1       0.9199999999999999
     40 P           4.5141   -0.1126  -10.4757 P.3     1  LIG1       0.8399999999999999
     41 P         -32.3799   27.7200   -5.6601 P.3     4  LIG4       0.6099999999999994
     42 P          40.7835   14.2773    7.4713 P.3     5  LIG5       0.6099999999999994
     43 P          -0.6353   -1.4524   -7.4340 P.3     1  LIG1       1.0299999999999994
     44 P           6.8060   11.8704   27.6723 P.3     6  LIG6       0.9499999999999993
     45 H           2.9003   -4.1467   -5.8414 H       1  LIG1       0.15000000000000002
     46 H           1.5112   -3.7237   -7.6723 H       1  LIG1       0.16000000000000003
     47 H           5.4248   -4.1028   -7.3679 H       1  LIG1          0.13
     48 H           2.6878   -2.3639   -9.6265 H       1  LIG1          0.12
     49 H           2.2485   -0.8288   -7.0283 H       1  LIG1       0.15000000000000002
     50 H           5.0047   -1.8530   -7.7649 H       1  LIG1           0.12
@<TRIPOS>BOND
     1    16    40    2
     2    17    40    1
     3    40    18    1
     4    40    32    1
     5    48     4    1
     6    32     4    1
     7    13    39    2
     8     4     6    1
     9     4     5    1
    10    33     5    1
    11    33    43    1
    12    25    43    2
    13    31     3    1
    14    31    39    1
    15     6     3    2
    16     6    50    1
    17     3    47    1
    18     5    49    1
    19     5     2    1
    20    39    14    1
    21    39    15    1
    22    46     2    1
    23    43    26    1
    24    43    30    1
    25    19    41    2
    26     2    30    1
    27     2     1    1
    28    45     1    1
    29     1    29    2
    30    41    20    1
    31    41    35    1
    32    41    21    1
    33    12    38    2
    34    38    11    1
    35    38    10    1
    36    24    42    2
    37    42    36    1
    38    42    23    1
    39    42    22    1
    40    28    44    2
    41    34    44    1
    42    44    27    1
    43     9    37    2
    44    37     7    1
    45    37     8    1
