@<TRIPOS>MOLECULE
HIIZAGQWABAMRR-BYPYZUCNSA-L	6044620	-647.8734529778934
 20 19 0 0 0
SMALL
MULLIKEN NwChem

@<TRIPOS>ATOM
      1 C           2.0007   -1.3258    0.9518 C.3     1  LIG1      -0.4800000000000004
      2 C           2.2895   -0.9160   -1.5229 C.3     1  LIG1      -0.46999999999999975
      3 C           1.4999   -0.5275   -0.2627 C.3     1  LIG1      -0.040000000000000036
      4 C          -0.0191   -0.7098   -0.4878 C.3     1  LIG1       -0.23000000000000043
      5 C          -0.8692   -0.3942    0.7466 C.2     1  LIG1       0.3700000000000001
      6 C          -0.5615    0.1125   -1.7624 C.2     1  LIG1       0.5099999999999998
      7 C          -0.7057    0.9551    1.5034 C.2     1  LIG1       0.45999999999999996
      8 O          -1.6621   -1.2368    1.1757 O.2     1  LIG1      -0.5600000000000005
      9 O          -1.5714   -0.3869   -2.3111 O.co2   1  LIG1      -0.6699999999999999
     10 O           0.0982    1.1351   -2.0827 O.co2   1  LIG1      -0.6500000000000004
     11 O           0.3657    1.0292    2.1776 O.co2   1  LIG1      -0.6300000000000008
     12 O          -1.6473    1.7735    1.4260 O.co2   1  LIG1      -0.6500000000000004
     13 H           1.7728   -2.3982    0.8405 H       1  LIG1          0.13
     14 H           1.5204   -0.9380    1.8543 H       1  LIG1       0.15000000000000002
     15 H           3.0943   -1.2306    1.0670 H       1  LIG1          0.13
     16 H           2.1235   -1.9755   -1.7780 H       1  LIG1          0.13
     17 H           1.9660   -0.2947   -2.3614 H       1  LIG1       0.15000000000000002
     18 H           3.3739   -0.7821   -1.3709 H       1  LIG1          0.13
     19 H           1.6627    0.5366   -0.0660 H       1  LIG1       0.10999999999999999
     20 H          -0.2270   -1.7677   -0.7058 H       1  LIG1       0.10999999999999999
@<TRIPOS>BOND
     1    17     2    1
     2     9     6   ar
     3    10     6   ar
     4    16     2    1
     5     6     4    1
     6     2    18    1
     7     2     3    1
     8    20     4    1
     9     4     3    1
    10     4     5    1
    11     3    19    1
    12     3     1    1
    13     5     8    2
    14     5     7    1
    15    13     1    1
    16     1    15    1
    17     1    14    1
    18    12     7   ar
    19     7    11   ar
