@<TRIPOS>MOLECULE
HKEAOVFNWRDVAJ-UHFFFAOYSA-L	11095384	-1425.1541485183006
 23 23 0 0 0
SMALL
MULLIKEN NwChem

@<TRIPOS>ATOM
      1 C           3.4186    1.6889   -0.7862 C.3     1  LIG1      -0.6100000000000003
      2 C           1.5500   -0.9011    0.3756 C.3     1  LIG1       -0.29000000000000004
      3 C           1.6487    0.4799    1.0258 C.3     1  LIG1      -0.41000000000000014
      4 C          -1.6560   -0.1706   -1.7090 C.3     1  LIG1       -0.1200000000000001
      5 C           0.1549   -1.1970   -0.2341 C.3     1  LIG1       0.5199999999999996
      6 C          -0.1624   -0.2852   -1.4218 C.2     1  LIG1       0.41000000000000014
      7 O           0.0196   -2.3768   -0.7703 O.3     1  LIG1      -0.7699999999999996
      8 O           0.6868    0.2271   -2.1651 O.2     1  LIG1      -0.5600000000000005
      9 O          -2.6660    0.5727    1.9050 O.3     1  LIG1      -0.6999999999999993
     10 O          -3.2503   -1.5825    0.5097 O.2     1  LIG1      -0.7200000000000006
     11 O          -0.7672   -0.8540    0.9476 O.3     1  LIG1      -0.6600000000000001
     12 O          -2.2503    0.5265   -0.6185 O.3     1  LIG1      -0.6099999999999994
     13 P          -2.3496   -0.4092    0.8077 P.3     1  LIG1       1.0299999999999994
     14 S           3.3569    1.2347    0.9958 S.3     1  LIG1      -0.030000000000001137
     15 H           4.4419    1.5658   -1.1590 H       1  LIG1       0.18999999999999995
     16 H           3.1074    2.7296   -0.9355 H       1  LIG1       0.18000000000000005
     17 H           2.7359    1.0411   -1.3482 H       1  LIG1       0.20999999999999996
     18 H           2.2684   -1.0011   -0.4443 H       1  LIG1          0.14
     19 H           1.7626   -1.6931    1.1025 H       1  LIG1          0.13
     20 H           1.3421    0.4563    2.0738 H       1  LIG1       0.18000000000000005
     21 H           0.9866    1.1913    0.5258 H       1  LIG1       0.18000000000000005
     22 H          -1.8027    0.4177   -2.6272 H       1  LIG1       0.15000000000000002
     23 H          -2.0939   -1.1708   -1.8251 H       1  LIG1       0.15000000000000002
@<TRIPOS>BOND
     1    22     4    1
     2     8     6    2
     3    23     4    1
     4     4     6    1
     5     4    12    1
     6     6     5    1
     7    17     1    1
     8    15     1    1
     9    16     1    1
    10     1    14    1
    11     7     5    1
    12    12    13    1
    13    18     2    1
    14     5     2    1
    15     5    11    1
    16     2     3    1
    17     2    19    1
    18    10    13    2
    19    21     3    1
    20    13    11    1
    21    13     9    1
    22    14     3    1
    23     3    20    1
