@<TRIPOS>MOLECULE
HKSDVVJONLXYKL-OHPMOLHNSA-M	6044624	-928.769658914005
 50 50 0 0 0
SMALL
MULLIKEN NwChem

@<TRIPOS>ATOM
      1 C          -3.4438   -6.2658   -6.0289 C.3     1  LIG1      -0.45999999999999996
      2 C          -2.6175   -5.4659   -5.0139 C.3     1  LIG1      -0.29000000000000004
      3 C           0.9080    0.6299    0.6435 C.3     1  LIG1      -0.3200000000000003
      4 C          -0.3379   -0.1118    1.0459 C.2     1  LIG1      -0.11000000000000032
      5 C           0.7773    2.1651    0.7727 C.3     1  LIG1      -0.2599999999999998
      6 C          -1.1993   -0.7628    0.2541 C.2     1  LIG1      -0.1299999999999999
      7 C           0.3977    2.6705    2.1757 C.3     1  LIG1      -0.2699999999999996
      8 C          -1.1056   -0.9367   -1.2466 C.3     1  LIG1      -0.3600000000000003
      9 C           1.3301    2.2164    3.3119 C.3     1  LIG1      -0.28000000000000025
     10 C          -0.7328   -2.3557   -1.6055 C.2     1  LIG1      -0.11000000000000032
     11 C           2.8137    2.5773    3.1188 C.3     1  LIG1      -0.2699999999999996
     12 C          -1.4519   -3.2503   -2.2935 C.2     1  LIG1      -0.1299999999999999
     13 C           3.0970    4.0822    2.9479 C.3     1  LIG1        -0.25
     14 C          -2.8014   -3.0411   -2.9353 C.3     1  LIG1      -0.34999999999999964
     15 C           2.4557    4.9521    4.0424 C.3     1  LIG1       -0.33999999999999986
     16 C          -2.5583   -4.0020   -5.3882 C.3     1  LIG1       0.08999999999999986
     17 C          -2.6619   -2.8802   -4.4393 C.3     1  LIG1       0.08000000000000007
     18 C           2.7767    4.3830    5.4726 C.2     1  LIG1       0.5300000000000002
     19 O           4.0036    4.2485    5.7170 O.co2   1  LIG1      -0.6799999999999997
     20 O           1.7793    4.0891    6.1821 O.co2   1  LIG1      -0.6799999999999997
     21 O          -3.7815   -3.2496   -5.2658 O.3     1  LIG1      -0.5199999999999996
     22 H          -4.4623   -5.8669   -6.0825 H       1  LIG1       0.15000000000000002
     23 H          -3.5015   -7.3244   -5.7514 H       1  LIG1       0.15000000000000002
     24 H          -3.0042   -6.2038   -7.0323 H       1  LIG1       0.15000000000000002
     25 H          -3.0488   -5.5814   -4.0144 H       1  LIG1       0.16000000000000003
     26 H          -1.5907   -5.8546   -4.9670 H       1  LIG1       0.15000000000000002
     27 H           1.7339    0.2959    1.2852 H       1  LIG1       0.15000000000000002
     28 H           1.1970    0.3805   -0.3849 H       1  LIG1          0.14
     29 H          -0.5595   -0.0870    2.1127 H       1  LIG1          0.14
     30 H           1.7341    2.6124    0.4738 H       1  LIG1          0.14
     31 H           0.0278    2.5108    0.0461 H       1  LIG1          0.13
     32 H          -2.0534   -1.2625    0.7124 H       1  LIG1          0.13
     33 H           0.3800    3.7670    2.1477 H       1  LIG1          0.14
     34 H          -0.6314    2.3583    2.4055 H       1  LIG1          0.13
     35 H          -0.3518   -0.2564   -1.6616 H       1  LIG1       0.16000000000000003
     36 H          -2.0604   -0.6568   -1.7089 H       1  LIG1       0.16000000000000003
     37 H           0.9975    2.6662    4.2550 H       1  LIG1          0.13
     38 H           1.2430    1.1261    3.4434 H       1  LIG1          0.13
     39 H           0.2349   -2.6708   -1.2143 H       1  LIG1          0.14
     40 H           3.3608    2.2466    4.0087 H       1  LIG1          0.12
     41 H           3.2351    2.0261    2.2616 H       1  LIG1          0.13
     42 H          -1.0189   -4.2378   -2.4589 H       1  LIG1          0.14
     43 H           4.1835    4.2215    3.0024 H       1  LIG1          0.12
     44 H           2.7747    4.4172    1.9468 H       1  LIG1          0.12
     45 H          -3.3047   -2.1541   -2.5358 H       1  LIG1       0.17000000000000004
     46 H          -3.4605   -3.8924   -2.7294 H       1  LIG1       0.16000000000000003
     47 H           2.8596    5.9722    3.9590 H       1  LIG1          0.12
     48 H           1.3679    5.0173    3.9100 H       1  LIG1       0.10999999999999999
     49 H          -2.0278   -3.8078   -6.3266 H       1  LIG1       0.15000000000000002
     50 H          -2.1835   -1.9427   -4.7358 H       1  LIG1       0.16000000000000003
@<TRIPOS>BOND
     1    24     1    1
     2    49    16    1
     3    22     1    1
     4     1    23    1
     5     1     2    1
     6    16    21    1
     7    16     2    1
     8    16    17    1
     9    21    17    1
    10     2    26    1
    11     2    25    1
    12    50    17    1
    13    17    14    1
    14    14    46    1
    15    14    45    1
    16    14    12    1
    17    42    12    1
    18    12    10    2
    19    36     8    1
    20    35     8    1
    21    10     8    1
    22    10    39    1
    23     8     6    1
    24    28     3    1
    25    31     5    1
    26     6    32    1
    27     6     4    2
    28    30     5    1
    29     3     5    1
    30     3     4    1
    31     3    27    1
    32     5     7    1
    33     4    29    1
    34    44    13    1
    35    33     7    1
    36     7    34    1
    37     7     9    1
    38    41    11    1
    39    13    43    1
    40    13    11    1
    41    13    15    1
    42    11     9    1
    43    11    40    1
    44     9    38    1
    45     9    37    1
    46    48    15    1
    47    47    15    1
    48    15    18    1
    49    18    19   ar
    50    18    20   ar
