@<TRIPOS>MOLECULE
HLAWVOWADPNAGN-BAHZUFOISA-N	6044625	-1207.4049160886807
 76 79 0 0 0
SMALL
MULLIKEN NwChem

@<TRIPOS>ATOM
      1 C           0.1242   -1.3871    6.8034 C.3     1  LIG1      -0.46999999999999975
      2 C          -0.1375    0.9473    5.8630 C.3     1  LIG1      -0.46999999999999975
      3 C          -3.1036    0.1995    7.4474 C.2     1  LIG1      -0.4500000000000002
      4 C          -1.9735   -2.5553    2.7091 C.3     1  LIG1      -0.4800000000000004
      5 C           1.2236    1.8970   -6.3606 C.3     1  LIG1      -0.46999999999999975
      6 C           0.7973   -0.8667    1.2854 C.3     1  LIG1      -0.4800000000000004
      7 C          -0.2659   -0.5692   -4.5252 C.3     1  LIG1      -0.4900000000000002
      8 C          -2.6674   -1.2319    5.4719 C.3     1  LIG1      -0.3600000000000003
      9 C          -2.6916   -0.5418    4.0719 C.3     1  LIG1      -0.2699999999999996
     10 C           0.3123    2.2771   -1.9727 C.3     1  LIG1      -0.34999999999999964
     11 C           0.5999    2.3016   -3.4746 C.3     1  LIG1      -0.29000000000000004
     12 C          -1.4416    1.3139    2.0393 C.3     1  LIG1      -0.33000000000000007
     13 C          -0.9083    1.8191    0.7254 C.2     1  LIG1      -0.2400000000000002
     14 C          -0.0143   -1.6104   -1.5457 C.3     1  LIG1      -0.3600000000000003
     15 C           3.1883   -0.9087   -4.6025 C.3     1  LIG1      -0.2999999999999998
     16 C          -0.9989   -1.5792   -0.3677 C.3     1  LIG1      -0.29000000000000004
     17 C           2.0199   -1.3141   -3.6746 C.3     1  LIG1      -0.2999999999999998
     18 C          -0.7155   -0.0967    6.8390 C.3     1  LIG1      -0.1299999999999999
     19 C          -2.2059   -0.3503    6.6204 C.2     1  LIG1      0.23000000000000043
     20 C          -1.6696   -1.0853    3.0469 C.3     1  LIG1      -0.09999999999999964
     21 C           2.1375    1.2867   -5.2862 C.3     1  LIG1      -0.08999999999999986
     22 C           0.0597    0.8884   -1.4203 C.2     1  LIG1      0.08000000000000007
     23 C          -1.6459   -0.2049    1.7765 C.3     1  LIG1      -0.09999999999999964
     24 C           1.5352    1.1533   -3.8535 C.3     1  LIG1      -0.11000000000000032
     25 C          -0.4728    0.8165   -0.0572 C.2     1  LIG1      0.11000000000000032
     26 C           0.3071   -0.2426   -2.1269 C.2     1  LIG1      0.040000000000000036
     27 C           2.7382   -0.0444   -5.7782 C.3     1  LIG1       0.13999999999999968
     28 C          -0.5796   -0.5244    0.6702 C.3     1  LIG1      0.040000000000000036
     29 C           0.8909   -0.2287   -3.5475 C.3     1  LIG1      0.05999999999999961
     30 O           3.8303    0.2970   -6.6400 O.3     1  LIG1      -0.6899999999999995
     31 H           0.1668   -1.8117    5.7938 H       1  LIG1       0.16000000000000003
     32 H          -0.2857   -2.1504    7.4741 H       1  LIG1       0.15000000000000002
     33 H           1.1547   -1.1793    7.1134 H       1  LIG1       0.15000000000000002
     34 H           0.8968    1.1926    6.1362 H       1  LIG1       0.15000000000000002
     35 H          -0.1256    0.5726    4.8351 H       1  LIG1       0.17000000000000004
     36 H          -0.7263    1.8717    5.8800 H       1  LIG1          0.14
     37 H          -4.1730    0.0414    7.3228 H       1  LIG1          0.14
     38 H          -2.8062    0.8360    8.2781 H       1  LIG1          0.14
     39 H          -2.8728   -2.6289    2.0829 H       1  LIG1          0.14
     40 H          -1.1497   -3.0274    2.1677 H       1  LIG1       0.16000000000000003
     41 H          -2.1498   -3.1519    3.6101 H       1  LIG1       0.15000000000000002
     42 H           1.7624    1.9117   -7.3142 H       1  LIG1          0.14
     43 H           0.3017    1.3231   -6.4996 H       1  LIG1       0.15000000000000002
     44 H           0.9408    2.9268   -6.1198 H       1  LIG1       0.15000000000000002
     45 H           1.0700   -0.1385    2.0567 H       1  LIG1       0.15000000000000002
     46 H           0.7978   -1.8636    1.7411 H       1  LIG1       0.15000000000000002
     47 H           1.5834   -0.8424    0.5248 H       1  LIG1       0.15000000000000002
     48 H           0.0872   -0.6935   -5.5514 H       1  LIG1       0.16000000000000003
     49 H          -0.7461   -1.5109   -4.2377 H       1  LIG1       0.15000000000000002
     50 H          -1.0373    0.2066   -4.5205 H       1  LIG1       0.15000000000000002
     51 H          -2.0374   -2.1274    5.4300 H       1  LIG1       0.16000000000000003
     52 H          -3.6731   -1.5945    5.7102 H       1  LIG1       0.15000000000000002
     53 H          -3.6955   -0.6485    3.6365 H       1  LIG1          0.13
     54 H          -2.5432    0.5321    4.2140 H       1  LIG1       0.15000000000000002
     55 H           1.1543    2.7244   -1.4229 H       1  LIG1       0.15000000000000002
     56 H          -0.5539    2.9147   -1.7547 H       1  LIG1       0.15000000000000002
     57 H           1.0478    3.2648   -3.7497 H       1  LIG1          0.14
     58 H          -0.3382    2.2269   -4.0375 H       1  LIG1       0.15000000000000002
     59 H          -2.3720    1.8140    2.3353 H       1  LIG1       0.15000000000000002
     60 H          -0.7262    1.4917    2.8584 H       1  LIG1       0.15000000000000002
     61 H          -0.8919    2.8747    0.4727 H       1  LIG1          0.13
     62 H          -0.4153   -2.2639   -2.3306 H       1  LIG1       0.15000000000000002
     63 H           0.9172   -2.0993   -1.2257 H       1  LIG1       0.16000000000000003
     64 H           3.6926   -1.8112   -4.9726 H       1  LIG1          0.14
     65 H           3.9452   -0.3405   -4.0469 H       1  LIG1          0.14
     66 H          -1.0684   -2.5786    0.0731 H       1  LIG1          0.14
     67 H          -1.9995   -1.3235   -0.7429 H       1  LIG1          0.13
     68 H           1.5758   -2.2528   -4.0263 H       1  LIG1          0.14
     69 H           2.4419   -1.5282   -2.6874 H       1  LIG1       0.15000000000000002
     70 H          -0.6186    0.3271    7.8479 H       1  LIG1          0.13
     71 H          -0.6768   -1.0426    3.5162 H       1  LIG1          0.14
     72 H           2.9999    1.9601   -5.1852 H       1  LIG1          0.13
     73 H          -2.6301   -0.3064    1.2924 H       1  LIG1          0.12
     74 H           2.3874    1.2220   -3.1605 H       1  LIG1          0.13
     75 H           1.9808   -0.5968   -6.3592 H       1  LIG1          0.13
     76 H           4.1561   -0.5244   -7.0398 H       1  LIG1       0.42000000000000004
@<TRIPOS>BOND
     1    42     5    1
     2    76    30    1
     3    30    27    1
     4    43     5    1
     5     5    44    1
     6     5    21    1
     7    75    27    1
     8    27    21    1
     9    27    15    1
    10    48     7    1
    11    21    72    1
    12    21    24    1
    13    64    15    1
    14    15    65    1
    15    15    17    1
    16     7    50    1
    17     7    49    1
    18     7    29    1
    19    58    11    1
    20    68    17    1
    21    24    29    1
    22    24    11    1
    23    24    74    1
    24    57    11    1
    25    17    29    1
    26    17    69    1
    27    29    26    1
    28    11    10    1
    29    62    14    1
    30    26    14    1
    31    26    22    2
    32    10    56    1
    33    10    55    1
    34    10    22    1
    35    14    63    1
    36    14    16    1
    37    22    25    1
    38    67    16    1
    39    16    66    1
    40    16    28    1
    41    25    28    1
    42    25    13    2
    43    61    13    1
    44    47     6    1
    45    28     6    1
    46    28    23    1
    47    13    12    1
    48     6    46    1
    49     6    45    1
    50    73    23    1
    51    23    12    1
    52    23    20    1
    53    12    59    1
    54    12    60    1
    55    39     4    1
    56    40     4    1
    57     4    20    1
    58     4    41    1
    59    20    71    1
    60    20     9    1
    61    53     9    1
    62     9    54    1
    63     9     8    1
    64    35     2    1
    65    51     8    1
    66     8    52    1
    67     8    19    1
    68    31     1    1
    69     2    36    1
    70     2    34    1
    71     2    18    1
    72    19    18    1
    73    19     3    2
    74     1    18    1
    75     1    33    1
    76     1    32    1
    77    18    70    1
    78    37     3    1
    79     3    38    1
