@<TRIPOS>MOLECULE
HLKXYZVTANABHZ-REOHCLBHSA-L	6044626	-679.9780788462994
 18 17 0 0 0
SMALL
MULLIKEN NwChem

@<TRIPOS>ATOM
      1 CB          1.2817    0.3238   -1.1635 C.3     1  ASP1       -0.3899999999999997
      2 CA          0.6793   -0.4401    0.0391 C.3     1  ASP1       -0.04999999999999982
      3 CG          0.4900    1.5079   -1.8303 C.2     1  ASP1       0.5300000000000002
      4 C           0.9668    0.2524    1.4415 C.2     1  ASP1       0.5099999999999998
      5 C          -1.5293   -1.4728    0.5298 C.2     0  UNK0       0.6500000000000004
      6 N          -2.8255   -1.4729    0.6705 N.2     0  UNK0        -0.79
      7 N          -0.7398   -0.7005   -0.2339 N.pl3   1  ASP1      -0.6299999999999999
      8 OD2        -0.7555    1.6181   -1.5939 O.co2   1  ASP1      -0.6600000000000001
      9 OD1         1.1714    2.2181   -2.6098 O.co2   1  ASP1      -0.6699999999999999
     10 OXT        -0.0079    0.4118    2.2143 O.co2   1  ASP1      -0.6699999999999999
     11 O           2.1886    0.5040    1.6334 O.co2   1  ASP1      -0.6799999999999997
     12 O          -0.8624   -2.5080    1.1500 O.2     0  UNK0      -0.6400000000000006
     13 HB1         1.4763   -0.3837   -1.9884 H       1  ASP1          0.14
     14 HB2         2.2541    0.7043   -0.8408 H       1  ASP1          0.14
     15 HA          1.1943   -1.4082    0.1109 H       1  ASP1          0.13
     16 H          -3.1945   -0.6217    0.2411 H       0  UNK0       0.29000000000000004
     17 H          -1.1493    0.1490   -0.6582 H       1  ASP1          0.36
     18 H          -1.5582   -2.8698    1.7232 H       0  UNK0       0.43000000000000005
@<TRIPOS>BOND
     1     9     3   ar
     2    13     1    1
     3     3     8   ar
     4     3     1    1
     5     1    14    1
     6     1     2    1
     7    17     7    1
     8     7     2    1
     9     7     5    1
    10     2    15    1
    11     2     4    1
    12    16     6    1
    13     5     6    2
    14     5    12    1
    15    12    18    1
    16     4    11   ar
    17     4    10   ar
