@<TRIPOS>MOLECULE
HMFHBZSHGGEWLO-TXICZTDVSA-N	6044629	-572.5133257951951
 20 20 0 0 0
SMALL
MULLIKEN NwChem

@<TRIPOS>ATOM
      1 C           1.1385    1.9107    0.3470 C.3     1  LIG1       -0.08000000000000007
      2 C           0.4424    0.9038   -0.5688 C.3     1  LIG1       0.1200000000000001
      3 C          -0.9632    0.4871   -0.0573 C.3     1  LIG1       0.07000000000000028
      4 C          -0.9528   -1.0343   -0.2811 C.3     1  LIG1       0.07000000000000028
      5 C           0.5239   -1.3703   -0.0221 C.3     1  LIG1       0.29000000000000004
      6 O           1.4627    1.3081    1.6026 O.3     1  LIG1      -0.6500000000000004
      7 O          -2.0251    1.1625   -0.6875 O.3     1  LIG1      -0.6799999999999997
      8 O          -1.3142   -1.2121   -1.6493 O.3     1  LIG1      -0.6799999999999997
      9 O           0.7992   -1.5250    1.3493 O.3     1  LIG1      -0.6600000000000001
     10 O           1.2448   -0.2942   -0.6094 O.3     1  LIG1      -0.5299999999999994
     11 H           0.4669    2.7488    0.5583 H       1  LIG1       0.17000000000000004
     12 H           2.0431    2.3059   -0.1350 H       1  LIG1       0.16000000000000003
     13 H           0.3513    1.3027   -1.5860 H       1  LIG1       0.16000000000000003
     14 H          -1.0465    0.7026    1.0130 H       1  LIG1       0.17000000000000004
     15 H          -1.6211   -1.5831    0.3930 H       1  LIG1       0.16000000000000003
     16 H           0.8508   -2.2955   -0.5049 H       1  LIG1       0.17000000000000004
     17 H           2.1571    0.6563    1.4036 H       1  LIG1       0.43000000000000005
     18 H          -2.1628    0.7033   -1.5350 H       1  LIG1       0.43000000000000005
     19 H          -1.3531   -2.1597   -1.8461 H       1  LIG1       0.44999999999999996
     20 H           0.6593   -0.6576    1.7750 H       1  LIG1       0.42000000000000004
@<TRIPOS>BOND
     1    19     8    1
     2     8     4    1
     3    13     2    1
     4    18     7    1
     5     7     3    1
     6    10     2    1
     7    10     5    1
     8     2     3    1
     9     2     1    1
    10    16     5    1
    11     4     3    1
    12     4     5    1
    13     4    15    1
    14    12     1    1
    15     3    14    1
    16     5     9    1
    17     1    11    1
    18     1     6    1
    19     9    20    1
    20    17     6    1
