@<TRIPOS>MOLECULE
HMFHBZSHGGEWLO-AIHAYLRMSA-N	6044627	-572.5101179205702
 20 20 0 0 0
SMALL
MULLIKEN NwChem

@<TRIPOS>ATOM
      1 C           0.4864   -0.9013   -2.1406 C.3     1  LIG1       -0.08999999999999986
      2 C          -0.1503   -0.5442   -0.8045 C.3     1  LIG1       0.13999999999999968
      3 C           0.2534    0.8464   -0.2592 C.3     1  LIG1       0.05999999999999961
      4 C           0.8133    0.5321    1.1602 C.3     1  LIG1       0.09999999999999964
      5 C           0.2320   -0.8678    1.4378 C.3     1  LIG1       0.2999999999999998
      6 O           0.0478    0.0103   -3.1477 O.3     1  LIG1      -0.6600000000000001
      7 O          -0.8455    1.7332   -0.1119 O.3     1  LIG1      -0.6799999999999997
      8 O           0.5440    1.5037    2.1284 O.3     1  LIG1      -0.6600000000000001
      9 O          -1.0791   -0.6908    1.9214 O.3     1  LIG1      -0.6600000000000001
     10 O           0.2647   -1.5097    0.1792 O.3     1  LIG1      -0.5299999999999994
     11 H           0.1694   -1.9019   -2.4492 H       1  LIG1       0.16000000000000003
     12 H           1.5815   -0.9152   -2.0394 H       1  LIG1       0.16000000000000003
     13 H          -1.2435   -0.5680   -0.9108 H       1  LIG1       0.15000000000000002
     14 H           1.0324    1.3137   -0.8827 H       1  LIG1       0.15000000000000002
     15 H           1.9010    0.4308    1.0991 H       1  LIG1       0.17000000000000004
     16 H           0.8361   -1.4805    2.1177 H       1  LIG1       0.16000000000000003
     17 H           0.6338    0.7810   -3.1260 H       1  LIG1       0.43999999999999995
     18 H          -1.3217    1.7544   -0.9562 H       1  LIG1       0.43000000000000005
     19 H          -0.4133    1.6683    2.0825 H       1  LIG1       0.43000000000000005
     20 H          -1.4740   -1.5709    2.0241 H       1  LIG1       0.43999999999999995
@<TRIPOS>BOND
     1     6    17    1
     2     6     1    1
     3    11     1    1
     4     1    12    1
     5     1     2    1
     6    18     7    1
     7    13     2    1
     8    14     3    1
     9     2     3    1
    10     2    10    1
    11     3     7    1
    12     3     4    1
    13    10     5    1
    14    15     4    1
    15     4     5    1
    16     4     8    1
    17     5     9    1
    18     5    16    1
    19     9    20    1
    20    19     8    1
