@<TRIPOS>MOLECULE
HMFHBZSHGGEWLO-QMKXCQHVSA-N	6044628	-572.5148830168603
 20 20 0 0 0
SMALL
MULLIKEN NwChem

@<TRIPOS>ATOM
      1 C          -0.3562   -1.5462   -1.5281 C.3     1  LIG1       -0.04999999999999982
      2 C          -0.1514   -1.0336   -0.1047 C.3     1  LIG1       0.09999999999999964
      3 C           0.9958   -0.0006    0.0421 C.3     1  LIG1       0.040000000000000036
      4 C           0.2445    1.3349    0.1998 C.3     1  LIG1       0.09999999999999964
      5 C          -1.0091    0.8686    0.9578 C.3     1  LIG1       0.3099999999999996
      6 O          -0.3713   -0.5030   -2.4857 O.3     1  LIG1      -0.6699999999999999
      7 O           1.7289   -0.1747    1.2638 O.3     1  LIG1      -0.6699999999999999
      8 O          -0.1912    1.8809   -1.0384 O.3     1  LIG1      -0.6699999999999999
      9 O          -0.7824    0.7268    2.3287 O.3     1  LIG1      -0.6600000000000001
     10 O          -1.3487   -0.3552    0.3071 O.3     1  LIG1      -0.5299999999999994
     11 H          -1.2879   -2.1329   -1.5487 H       1  LIG1       0.15000000000000002
     12 H           0.4699   -2.2146   -1.7996 H       1  LIG1       0.16000000000000003
     13 H           0.0343   -1.8889    0.5651 H       1  LIG1       0.16000000000000003
     14 H           1.6697   -0.0057   -0.8247 H       1  LIG1       0.18000000000000005
     15 H           0.8334    2.0562    0.7785 H       1  LIG1       0.16000000000000003
     16 H          -1.8594    1.5408    0.8334 H       1  LIG1       0.17000000000000004
     17 H          -0.9221    0.2093   -2.1124 H       1  LIG1       0.42000000000000004
     18 H           2.0965   -1.0722    1.2749 H       1  LIG1       0.43999999999999995
     19 H           0.5574    1.8833   -1.6555 H       1  LIG1       0.43999999999999995
     20 H           0.0881    0.3001    2.4361 H       1  LIG1       0.43000000000000005
@<TRIPOS>BOND
     1     6    17    1
     2     6     1    1
     3    12     1    1
     4    19     8    1
     5    11     1    1
     6     1     2    1
     7     8     4    1
     8    14     3    1
     9     2     3    1
    10     2    10    1
    11     2    13    1
    12     3     4    1
    13     3     7    1
    14     4    15    1
    15     4     5    1
    16    10     5    1
    17    16     5    1
    18     5     9    1
    19     7    18    1
    20     9    20    1
