@<TRIPOS>MOLECULE
HNDVDQJCIGZPNO-YFKPBYRVSA-N	6044630	-548.6620492767713
 20 20 0 0 0
SMALL
MULLIKEN NwChem

@<TRIPOS>ATOM
      1 CB          0.2197   -0.6432   -0.4693 C.3     1  HIS1       -0.34999999999999964
      2 CD2         0.6978   -1.8872    1.7983 C.ar    1  HIS1       -0.1299999999999999
      3 CE1        -0.8931   -1.0752    2.9742 C.ar    1  HIS1       0.17999999999999972
      4 CG          0.0246   -1.0250    0.9628 C.ar    1  HIS1       0.3200000000000003
      5 CA          0.1211    0.8856   -0.7098 C.3     1  HIS1       -0.07000000000000028
      6 C           0.5565    1.2089   -2.1387 C.2     1  HIS1       0.5899999999999999
      7 N          -1.2392    1.3575   -0.4300 N.3     1  HIS1      -0.7400000000000002
      8 NE2         0.1193   -1.9161    3.0486 N.ar    1  HIS1      -0.5099999999999998
      9 ND1        -1.0031   -0.5181    1.7341 N.ar    1  HIS1      -0.5800000000000001
     10 O          -0.1901    1.5710   -3.0220 O.2     1  HIS1      -0.5099999999999998
     11 OXT         1.8827    1.0158   -2.3190 O.3     1  HIS1      -0.5800000000000001
     12 HB1        -0.5267   -1.1294   -1.1170 H       1  HIS1       0.18000000000000005
     13 HB2         1.2011   -0.9963   -0.7991 H       1  HIS1       0.18999999999999995
     14 HD2         1.5649   -2.4916    1.5638 H       1  HIS1       0.15000000000000002
     15 HE1        -1.5731   -0.8337    3.7804 H       1  HIS1       0.18000000000000005
     16 HA          0.8154    1.3824   -0.0233 H       1  HIS1       0.18999999999999995
     17 H1         -1.2524    2.3766   -0.4450 H       1  HIS1       0.33999999999999997
     18 H2         -1.8359    1.0770   -1.2098 H       1  HIS1       0.32999999999999996
     19 HD1        -1.6095    0.2244    1.3971 H       1  HIS1          0.38
     20 HXT         2.0727    1.2114   -3.2564 H       1  HIS1       0.44999999999999996
@<TRIPOS>BOND
     1    20    11    1
     2    10     6    2
     3    11     6    1
     4     6     5    1
     5    18     7    1
     6    12     1    1
     7    13     1    1
     8     5     1    1
     9     5     7    1
    10     5    16    1
    11     1     4    1
    12    17     7    1
    13     4     9   ar
    14     4     2   ar
    15    19     9    1
    16    14     2    1
    17     9     3   ar
    18     2     8   ar
    19     3     8   ar
    20     3    15    1
