@<TRIPOS>MOLECULE
HOSWPDPVFBCLSY-VKHMYHEASA-N	6044631	-436.99467971685596
 15 14 0 0 0
SMALL
MULLIKEN NwChem

@<TRIPOS>ATOM
      1 CG2         0.0937   -1.5085   -1.4211 C.3     1  THR1            -0.54
      2 CB          0.3588   -1.1988    0.0353 C.2     1  THR1       0.46999999999999975
      3 CA         -0.3323    0.0759    0.5977 C.3     1  THR1       -0.13999999999999968
      4 C           0.5865    1.2583    0.2770 C.2     1  THR1       0.5800000000000001
      5 N          -1.6749    0.2342    0.0461 N.3     1  THR1        -0.75
      6 OG1         1.0750   -1.8696    0.7451 O.2     1  THR1      -0.4800000000000004
      7 O           0.4159    2.0087   -0.6611 O.2     1  THR1         -0.5
      8 OXT         1.6326    1.3410    1.1215 O.3     1  THR1      -0.5700000000000003
      9 HG21       -0.9652   -1.7560   -1.5525 H       1  THR1       0.19999999999999996
     10 HG22        0.2968   -0.6251   -2.0398 H       1  THR1       0.19999999999999996
     11 HG23        0.7192   -2.3442   -1.7389 H       1  THR1       0.18000000000000005
     12 HA         -0.3709   -0.0595    1.6808 H       1  THR1       0.19999999999999996
     13 H1         -2.2196    0.8354    0.6615 H       1  THR1          0.35
     14 H2         -1.6022    0.7401   -0.8370 H       1  THR1       0.32999999999999996
     15 HXT         2.1932    2.0777    0.8103 H       1  THR1       0.44999999999999996
@<TRIPOS>BOND
     1    10     1    1
     2    11     1    1
     3     9     1    1
     4     1     2    1
     5    14     5    1
     6     7     4    2
     7     2     3    1
     8     2     6    2
     9     5     3    1
    10     5    13    1
    11     4     3    1
    12     4     8    1
    13     3    12    1
    14    15     8    1
