@<TRIPOS>MOLECULE
HOVAGTYPODGVJG-XUUWZHRGSA-N	6044632	-726.2941794822667
 27 27 0 0 0
SMALL
MULLIKEN NwChem

@<TRIPOS>ATOM
      1 C           1.7711    1.6191   -2.0351 C.3     1  LIG1       -0.23000000000000043
      2 C           1.2233   -0.0894    1.9308 C.3     1  LIG1       -0.05999999999999961
      3 C          -0.2507   -0.0130    1.4864 C.3     1  LIG1       0.08999999999999986
      4 C          -0.7771   -1.3165    0.8811 C.3     1  LIG1       0.08000000000000007
      5 C          -0.4174   -1.4745   -0.6173 C.3     1  LIG1       0.08000000000000007
      6 C          -0.8127   -0.1990   -1.3867 C.3     1  LIG1       0.07000000000000028
      7 C          -0.1645    1.0301   -0.7235 C.3     1  LIG1       0.3200000000000003
      8 O           1.7086    1.1800    2.3121 O.3     1  LIG1      -0.6699999999999999
      9 O          -2.2072   -1.2825    1.0449 O.3     1  LIG1      -0.6699999999999999
     10 O           0.9495   -1.8087   -0.7998 O.3     1  LIG1      -0.6899999999999995
     11 O          -2.2145   -0.0246   -1.4622 O.3     1  LIG1      -0.6799999999999997
     12 O           1.2709    0.9862   -0.8601 O.3     1  LIG1      -0.5199999999999996
     13 O          -0.4847    1.1321    0.6294 O.3     1  LIG1      -0.5199999999999996
     14 H           1.4806    2.6784   -2.0630 H       1  LIG1       0.17000000000000004
     15 H           1.4143    1.1274   -2.9503 H       1  LIG1       0.17000000000000004
     16 H           2.8598    1.5445   -1.9923 H       1  LIG1       0.18000000000000005
     17 H           1.2782   -0.7350    2.8148 H       1  LIG1       0.17000000000000004
     18 H           1.8452   -0.5488    1.1539 H       1  LIG1          0.14
     19 H          -0.8574    0.2208    2.3650 H       1  LIG1       0.17000000000000004
     20 H          -0.3453   -2.1621    1.4357 H       1  LIG1       0.17000000000000004
     21 H          -1.0054   -2.3083   -1.0227 H       1  LIG1       0.16000000000000003
     22 H          -0.4456   -0.2852   -2.4150 H       1  LIG1       0.17000000000000004
     23 H          -0.5515    1.9462   -1.1858 H       1  LIG1       0.17000000000000004
     24 H           1.5661    1.7509    1.5386 H       1  LIG1       0.42000000000000004
     25 H          -2.5689   -2.1096    0.6864 H       1  LIG1       0.43999999999999995
     26 H           1.4416   -0.9678   -0.8383 H       1  LIG1       0.43999999999999995
     27 H          -2.5455   -0.0886   -0.5458 H       1  LIG1       0.42000000000000004
@<TRIPOS>BOND
     1    15     1    1
     2    22     6    1
     3    14     1    1
     4     1    16    1
     5     1    12    1
     6    11     6    1
     7    11    27    1
     8     6     7    1
     9     6     5    1
    10    23     7    1
    11    21     5    1
    12    12     7    1
    13    26    10    1
    14    10     5    1
    15     7    13    1
    16     5     4    1
    17    13     3    1
    18    25     9    1
    19     4     9    1
    20     4    20    1
    21     4     3    1
    22    18     2    1
    23     3     2    1
    24     3    19    1
    25    24     8    1
    26     2     8    1
    27     2    17    1
