@<TRIPOS>MOLECULE
HPEUEJRPDGMIMY-IFQPEPLCSA-K	11095383	-2250.8023859705704
 35 37 0 0 0
SMALL
MULLIKEN NwChem

@<TRIPOS>ATOM
      1 C           1.8070    1.7988   -0.5064 C.3     1  LIG1       -0.03000000000000025
      2 C           1.4011    0.5056    0.2524 C.3     1  LIG1       0.08000000000000007
      3 C          -0.8327   -1.4037   -0.1252 C.3     1  LIG1       -0.019999999999999574
      4 C          -3.0649   -0.6360   -0.5270 C.ar    1  LIG1       0.16000000000000014
      5 C           1.6147   -0.8240   -0.4743 C.2     1  LIG1       -0.05999999999999961
      6 C           0.5497   -1.6529   -0.6771 C.2     1  LIG1       -0.15000000000000036
      7 C          -3.1115   -0.1127    0.7178 C.ar    1  LIG1       0.45999999999999996
      8 C          -4.3355   -0.9194   -1.2343 C.ar    1  LIG1       0.4800000000000004
      9 C          -0.6909   -0.3675    1.0005 C.3     1  LIG1       0.29000000000000004
     10 C          -5.5478   -0.0631    0.6213 C.ar    1  LIG1       0.5599999999999996
     11 N          -6.6260    0.1891    1.3365 N.pl3   1  LIG1      -0.8300000000000001
     12 N          -1.8098   -0.9216   -1.1144 N.pl3   1  LIG1      -0.6900000000000004
     13 N          -1.9784    0.0617    1.5444 N.pl3   1  LIG1      -0.7000000000000002
     14 N          -4.3291    0.2659    1.2650 N.ar    1  LIG1      -0.7000000000000002
     15 N          -5.5198   -0.5922   -0.6292 N.ar    1  LIG1      -0.6699999999999999
     16 O          -4.2812   -1.4587   -2.3658 O.2     1  LIG1      -0.6799999999999997
     17 O           5.3723    3.1420    0.0500 O.2     1  LIG1      -0.6899999999999995
     18 O           4.4174    1.0719    1.3186 O.3     1  LIG1      -0.7599999999999998
     19 O           3.2569    3.3489    1.6065 O.3     1  LIG1      -0.7200000000000006
     20 O           3.1847    2.0602   -0.6664 O.3     1  LIG1      -0.5899999999999999
     21 O           0.0051    0.7666    0.5390 O.3     1  LIG1      -0.5399999999999991
     22 P           4.1134    2.5648    0.6434 P.3     1  LIG1       1.0399999999999991
     23 S           3.2795   -1.2500   -0.8931 S.3     1  LIG1      -0.5799999999999983
     24 S           0.7708   -3.2520   -1.4804 S.3     1  LIG1      -0.17999999999999972
     25 H           1.3660    1.7435   -1.5094 H       1  LIG1       0.15000000000000002
     26 H           1.3318    2.6173    0.0497 H       1  LIG1          0.14
     27 H           1.9579    0.4769    1.2010 H       1  LIG1       0.15000000000000002
     28 H          -1.1988   -2.3367    0.3528 H       1  LIG1          0.14
     29 H          -0.1120   -0.8352    1.8177 H       1  LIG1          0.14
     30 H          -7.4050   -0.1032    0.7378 H       1  LIG1          0.26
     31 H          -1.9399   -1.5676   -1.8891 H       1  LIG1       0.31999999999999995
     32 H          -1.8808    1.0221    1.8716 H       1  LIG1          0.35
     33 H          -4.3880    0.3389    2.2718 H       1  LIG1       0.33999999999999997
     34 H           4.2883    0.3895    0.6210 H       1  LIG1       0.43999999999999995
     35 H           2.1492   -2.9965   -1.5080 H       1  LIG1       0.09999999999999998
@<TRIPOS>BOND
     1    16     8    2
     2    31    12    1
     3    25     1    1
     4    35    24    1
     5    24     6    1
     6     8    15   ar
     7     8     4   ar
     8    12     4    1
     9    12     3    1
    10    23     5    1
    11     6     5    2
    12     6     3    1
    13    20     1    1
    14    20    22    1
    15    15    10   ar
    16     4     7   ar
    17     1    26    1
    18     1     2    1
    19     5     2    1
    20     3    28    1
    21     3     9    1
    22    17    22    2
    23     2    21    1
    24     2    27    1
    25    21     9    1
    26    34    18    1
    27    10    14   ar
    28    10    11    1
    29    22    18    1
    30    22    19    1
    31     7    14   ar
    32     7    13    1
    33    30    11    1
    34     9    13    1
    35     9    29    1
    36    14    33    1
    37    13    32    1
