@<TRIPOS>MOLECULE
HPITTXOWHLWIEK-IWGUZYHVSA-M	6044634	-685.4063553846556
 21 20 0 0 0
SMALL
MULLIKEN NwChem

@<TRIPOS>ATOM
      1 C          -0.3497   -0.0884    1.6239 C.3     1  LIG1       -0.41000000000000014
      2 C           0.9057   -1.7751   -1.1089 C.2     1  LIG1       0.2400000000000002
      3 C           0.7779    0.5666    0.8156 C.3     1  LIG1       0.11000000000000032
      4 C           0.0910   -0.5503   -1.4543 C.3     1  LIG1       0.040000000000000036
      5 C          -1.7765    0.5678    1.5936 C.2     1  LIG1       0.5499999999999998
      6 C           0.5847    0.7387   -0.7072 C.3     1  LIG1       0.1299999999999999
      7 O           1.6428   -2.3064   -1.9275 O.2     1  LIG1      -0.47000000000000064
      8 O           2.0041   -0.1923    0.9699 O.3     1  LIG1      -0.6799999999999997
      9 O           0.1327   -0.3448   -2.8555 O.3     1  LIG1      -0.6899999999999995
     10 O          -2.3554    0.6658    2.6864 O.co2   1  LIG1      -0.6400000000000006
     11 O          -2.2182    0.8656    0.4347 O.co2   1  LIG1      -0.6600000000000001
     12 O          -0.2528    1.8178   -1.0007 O.3     1  LIG1      -0.7100000000000009
     13 H          -0.0310   -0.1372    2.6749 H       1  LIG1       0.15000000000000002
     14 H          -0.4762   -1.1267    1.2852 H       1  LIG1       0.17000000000000004
     15 H           0.8160   -2.1774   -0.0870 H       1  LIG1       0.17000000000000004
     16 H           0.9380    1.5863    1.1979 H       1  LIG1          0.13
     17 H          -0.9502   -0.6989   -1.1322 H       1  LIG1       0.17000000000000004
     18 H           1.5764    0.9633   -1.1244 H       1  LIG1          0.14
     19 H           1.9729   -0.5852    1.8557 H       1  LIG1       0.43000000000000005
     20 H           0.8751   -0.9030   -3.1562 H       1  LIG1       0.42000000000000004
     21 H          -1.1118    1.5910   -0.5294 H       1  LIG1       0.42000000000000004
@<TRIPOS>BOND
     1    20     9    1
     2     9     4    1
     3     7     2    2
     4     4    17    1
     5     4     2    1
     6     4     6    1
     7    18     6    1
     8     2    15    1
     9    12     6    1
    10    12    21    1
    11     6     3    1
    12    11     5   ar
    13     3     8    1
    14     3    16    1
    15     3     1    1
    16     8    19    1
    17    14     1    1
    18     5     1    1
    19     5    10   ar
    20     1    13    1
