@<TRIPOS>MOLECULE
HQIDPEYTETUCNF-XVFCMESISA-L	6044636	-1477.658263010294
 32 33 0 0 0
SMALL
MULLIKEN NwChem

@<TRIPOS>ATOM
      1 C          -0.4567   -0.6702   -4.1138 C.ar    1  LIG1       -0.29000000000000004
      2 C          -0.5873   -1.0119   -2.8168 C.ar    1  LIG1       0.08000000000000007
      3 C          -3.2408    1.1122    1.6620 C.3     1  LIG1       -0.040000000000000036
      4 C          -2.0746    0.2079    1.2902 C.3     1  LIG1       0.08999999999999986
      5 C          -0.1745    0.7364   -4.4703 C.ar    1  LIG1       0.5199999999999996
      6 C          -0.7101    0.8621    1.5385 C.3     1  LIG1       0.13999999999999968
      7 C           0.2092   -0.0420    0.6958 C.3     1  LIG1       0.03000000000000025
      8 C          -0.7382   -0.4958   -0.4575 C.3     1  LIG1       0.2599999999999998
      9 C          -0.1813    1.3093   -2.1535 C.ar    1  LIG1       0.6699999999999999
     10 N          -0.0535    1.6430   -3.4495 N.ar    1  LIG1      -0.6699999999999999
     11 N          -0.4339   -0.0896   -1.8070 N.ar    1  LIG1      -0.4900000000000002
     12 O          -3.2474    1.3568    3.0666 O.3     1  LIG1      -0.6999999999999993
     13 O          -0.0591    1.0539   -5.6724 O.2     1  LIG1      -0.6699999999999999
     14 O          -0.4634    1.0054    2.9242 O.3     1  LIG1      -0.7400000000000002
     15 O          -0.0845    2.0964   -1.1997 O.2     1  LIG1      -0.6300000000000008
     16 O           2.1060   -2.7404    2.7352 O.2     1  LIG1      -0.6699999999999999
     17 O           3.0999   -0.8753    1.2381 O.3     1  LIG1      -0.7200000000000006
     18 O           1.8678   -0.1637    3.3379 O.3     1  LIG1      -0.7100000000000009
     19 O          -2.0765   -0.0856   -0.1017 O.3     1  LIG1      -0.5500000000000007
     20 O           0.5665   -1.2495    1.3897 O.3     1  LIG1      -0.5999999999999996
     21 P           1.9285   -1.3056    2.3449 P.3     1  LIG1          1.08
     22 H          -0.5610   -1.4044   -4.9071 H       1  LIG1          0.14
     23 H          -0.8075   -2.0269   -2.4901 H       1  LIG1       0.18999999999999995
     24 H          -3.1578    2.0470    1.0815 H       1  LIG1          0.13
     25 H          -4.1984    0.6416    1.3969 H       1  LIG1       0.15000000000000002
     26 H          -2.1308   -0.7136    1.8957 H       1  LIG1          0.13
     27 H          -0.7096    1.8398    1.0435 H       1  LIG1       0.15000000000000002
     28 H           1.0944    0.4724    0.3218 H       1  LIG1       0.17000000000000004
     29 H          -0.7009   -1.5923   -0.4487 H       1  LIG1       0.18000000000000005
     30 H          -2.3046    1.3468    3.3391 H       1  LIG1       0.43000000000000005
     31 H           0.4051    0.5643    3.1678 H       1  LIG1       0.44999999999999996
     32 H           3.2097   -1.6423    0.6544 H       1  LIG1       0.44999999999999996
@<TRIPOS>BOND
     1    13     5    2
     2    22     1    1
     3     5     1   ar
     4     5    10   ar
     5     1     2   ar
     6    10     9   ar
     7     2    23    1
     8     2    11   ar
     9     9    11   ar
    10     9    15    2
    11    11     8    1
    12     8    29    1
    13     8    19    1
    14     8     7    1
    15    19     4    1
    16    28     7    1
    17    32    17    1
    18     7    20    1
    19     7     6    1
    20    27     6    1
    21    24     3    1
    22    17    21    1
    23     4     6    1
    24     4     3    1
    25     4    26    1
    26    20    21    1
    27    25     3    1
    28     6    14    1
    29     3    12    1
    30    21    16    2
    31    21    18    1
    32    14    31    1
    33    12    30    1
