@<TRIPOS>MOLECULE
HRBCPXBJAWPPIC-GZBYGQQWSA-J	11095381	-2739.822527365891
 44 47 0 0 0
SMALL
MULLIKEN NwChem

@<TRIPOS>ATOM
      1 C           0.4240   -0.9693    0.0194 C.3     1  LIG1       -0.08999999999999986
      2 C          -1.0331   -0.8232    0.4655 C.3     1  LIG1       0.09999999999999964
      3 C          -5.1399    1.2890    0.9412 C.ar    1  LIG1       0.13999999999999968
      4 C          -2.3655    0.2882   -1.1871 C.3     1  LIG1       0.11000000000000032
      5 C          -5.0578   -0.0196    0.6407 C.ar    1  LIG1       0.5199999999999996
      6 C          -6.4342    1.9146    1.2071 C.ar    1  LIG1       0.4800000000000004
      7 C          -3.0446   -0.9697   -0.6141 C.3     1  LIG1       0.1900000000000004
      8 C          -2.9214    0.6630    1.1100 C.3     1  LIG1       0.13999999999999968
      9 C          -7.4762   -0.1922    0.7255 C.ar    1  LIG1       0.5800000000000001
     10 C          -1.6843    0.5754    0.1862 C.3     1  LIG1       0.23000000000000043
     11 N          -8.5472   -0.9570    0.6403 N.pl3   1  LIG1      -0.8200000000000003
     12 N          -3.8073    1.8527    0.9318 N.pl3   1  LIG1      -0.7300000000000004
     13 N          -6.1803   -0.7783    0.4233 N.ar    1  LIG1      -0.7300000000000004
     14 N          -7.5423    1.1111    1.0733 N.ar    1  LIG1      -0.6699999999999999
     15 N          -3.7376   -0.5037    0.6351 N.pl3   1  LIG1      -0.5199999999999996
     16 O          -3.2156    1.2923   -1.6943 O.3     1  LIG1      -0.6999999999999993
     17 O          -6.4990    3.1136    1.5655 O.2     1  LIG1      -0.6899999999999995
     18 O          -0.8402    1.6729    0.3175 O.3     1  LIG1      -0.7200000000000006
     19 O           7.2178    2.0443    0.8196 O.2     1  LIG1      -0.6999999999999993
     20 O           7.0706   -0.1017    2.3080 O.3     1  LIG1      -0.7100000000000009
     21 O           7.3520   -0.2806   -0.2724 O.3     1  LIG1      -0.7699999999999996
     22 O           2.0348    0.6397   -3.0874 O.2     1  LIG1      -0.6799999999999997
     23 O           2.0949   -1.8660   -2.2450 O.3     1  LIG1      -0.7200000000000006
     24 O           5.1354   -1.7595   -0.4429 O.2     1  LIG1      -0.7200000000000006
     25 O           3.2561   -1.1709    1.2999 O.3     1  LIG1      -0.6699999999999999
     26 O           0.7295   -0.0454   -1.0239 O.3     1  LIG1      -0.6300000000000008
     27 O          -1.9422   -1.7578   -0.2216 O.3     1  LIG1      -0.5299999999999994
     28 O           5.1183    0.5450    0.6874 O.3     1  LIG1      -0.6699999999999999
     29 O           3.3304    0.0691   -0.9724 O.3     1  LIG1      -0.6600000000000001
     30 P           6.7895    0.6071    1.0014 P.3     1  LIG1       1.0299999999999994
     31 P           2.1274   -0.3839   -1.9926 P.3     1  LIG1       1.1500000000000004
     32 P           4.2102   -0.7454    0.2140 P.3     1  LIG1       1.1099999999999994
     33 H           1.1020   -0.8062    0.8659 H       1  LIG1       0.18000000000000005
     34 H           0.5860   -1.9959   -0.3308 H       1  LIG1       0.16000000000000003
     35 H          -1.0892   -1.0654    1.5385 H       1  LIG1       0.16000000000000003
     36 H          -1.6219    0.0211   -1.9415 H       1  LIG1       0.16000000000000003
     37 H          -3.7245   -1.5418   -1.2488 H       1  LIG1       0.18000000000000005
     38 H          -2.6416    0.5318    2.1683 H       1  LIG1       0.17000000000000004
     39 H          -8.2444   -1.8873    0.3221 H       1  LIG1          0.27
     40 H          -3.6776    2.5544    1.6539 H       1  LIG1          0.35
     41 H          -6.0843   -1.7781    0.5468 H       1  LIG1          0.36
     42 H          -3.4680    1.8541   -0.9276 H       1  LIG1       0.43999999999999995
     43 H          -0.0477    1.4230   -0.2238 H       1  LIG1       0.44999999999999996
     44 H           6.6416   -0.9652   -0.4516 H       1  LIG1       0.44999999999999996
@<TRIPOS>BOND
     1    22    31    2
     2    23    31    1
     3    31    26    1
     4    31    29    1
     5    36     4    1
     6    16     4    1
     7    16    42    1
     8    37     7    1
     9     4     7    1
    10     4    10    1
    11    26     1    1
    12    29    32    1
    13     7    27    1
    14     7    15    1
    15    44    21    1
    16    24    32    2
    17    34     1    1
    18    21    30    1
    19    43    18    1
    20    27     2    1
    21     1     2    1
    22     1    33    1
    23    10    18    1
    24    10     2    1
    25    10     8    1
    26    32    28    1
    27    32    25    1
    28    39    11    1
    29    13    41    1
    30    13     5   ar
    31    13     9   ar
    32     2    35    1
    33    15     5    1
    34    15     8    1
    35    11     9    1
    36     5     3   ar
    37    28    30    1
    38     9    14   ar
    39    19    30    2
    40    12     3    1
    41    12     8    1
    42    12    40    1
    43     3     6   ar
    44    30    20    1
    45    14     6   ar
    46     8    38    1
    47     6    17    2
