@<TRIPOS>MOLECULE
HRPVXLWXLXDGHG-UHFFFAOYSA-N	6044638	-247.22563212517574
 10 9 0 0 0
SMALL
MULLIKEN NwChem

@<TRIPOS>ATOM
      1 C           1.7310   -0.0914    0.8820 C.3     1  LIG1      -0.34999999999999964
      2 C           1.0306    0.0257   -0.2495 C.2     1  LIG1      -0.1200000000000001
      3 C          -0.4442    0.0324   -0.3147 C.2     1  LIG1       0.4800000000000004
      4 N          -1.1736    0.1398   -1.3584 N.pl3   1  LIG1      -0.7000000000000002
      5 O          -1.0397   -0.0917    0.8988 O.2     1  LIG1      -0.6199999999999992
      6 H           1.2364   -0.1928    1.8426 H       1  LIG1       0.18000000000000005
      7 H           2.8171   -0.0885    0.8747 H       1  LIG1       0.18000000000000005
      8 H           1.5352    0.1255   -1.2080 H       1  LIG1       0.18000000000000005
      9 H          -0.6007    0.2259   -2.1991 H       1  LIG1       0.32999999999999996
     10 H          -1.9980   -0.0737    0.7226 H       1  LIG1       0.43999999999999995
@<TRIPOS>BOND
     1     9     4    1
     2     4     3    1
     3     8     2    1
     4     3     2    2
     5     3     5    1
     6     2     1    1
     7    10     5    1
     8     7     1    1
     9     1     6    1
