@<TRIPOS>MOLECULE
HSCJRCZFDFQWRP-ABVWGUQPSA-L	11095380	-2655.956975003653
 58 60 0 0 0
SMALL
MULLIKEN NwChem

@<TRIPOS>ATOM
      1 C           6.6415   -2.1150   -0.0705 C.ar    1  LIG1       -0.29000000000000004
      2 C           5.6643   -1.1933   -0.1762 C.ar    1  LIG1       0.08000000000000007
      3 C          -7.2828    1.3119    0.1635 C.3     1  LIG1       -0.07000000000000028
      4 C           2.1636    0.7502    1.7243 C.3     1  LIG1       -0.07000000000000028
      5 C          -6.1844    1.0090   -0.8766 C.3     1  LIG1       0.08000000000000007
      6 C           2.8037    1.2537    0.4379 C.3     1  LIG1       0.13999999999999968
      7 C           8.0461   -1.7204   -0.3168 C.ar    1  LIG1       0.5199999999999996
      8 C          -6.0589   -0.4911   -1.2595 C.3     1  LIG1       0.1200000000000001
      9 C           2.5544    0.4031   -0.8245 C.3     1  LIG1       0.08000000000000007
     10 C          -5.2096   -1.3026   -0.2787 C.3     1  LIG1       0.08000000000000007
     11 C           3.7912    0.7683   -1.6689 C.3     1  LIG1       0.08000000000000007
     12 C          -3.8988   -0.5815    0.0393 C.3     1  LIG1       0.05999999999999961
     13 C           4.8985    1.0774   -0.6314 C.3     1  LIG1       0.2400000000000002
     14 C          -4.2240    0.8546    0.4889 C.3     1  LIG1       0.34999999999999964
     15 C           7.3460    0.5259   -0.7079 C.ar    1  LIG1       0.6699999999999999
     16 N           8.3071   -0.4055   -0.6099 N.ar    1  LIG1      -0.6699999999999999
     17 N           5.9477    0.1079   -0.5190 N.ar    1  LIG1      -0.4900000000000002
     18 O          -8.5790    1.2336   -0.4296 O.3     1  LIG1      -0.6899999999999995
     19 O           8.9451   -2.5815   -0.2449 O.2     1  LIG1      -0.6699999999999999
     20 O          -7.3587   -1.1044   -1.3813 O.3     1  LIG1      -0.6899999999999995
     21 O           1.3922    0.7258   -1.5547 O.3     1  LIG1      -0.7300000000000004
     22 O          -6.0257   -1.4950    0.8922 O.3     1  LIG1      -0.6699999999999999
     23 O           3.5106    1.9534   -2.4070 O.3     1  LIG1      -0.6899999999999995
     24 O          -3.1205   -0.6233   -1.1223 O.3     1  LIG1      -0.7100000000000009
     25 O           7.5270    1.7271   -0.9611 O.2     1  LIG1      -0.6400000000000006
     26 O           0.2301   -1.6283    2.0425 O.3     1  LIG1      -0.6099999999999994
     27 O          -0.6494   -0.3268   -0.0791 O.2     1  LIG1      -0.6999999999999993
     28 O          -1.2258    2.7199    1.9810 O.3     1  LIG1      -0.6899999999999995
     29 O          -3.3233    1.7997    3.2529 O.2     1  LIG1      -0.5999999999999996
     30 O           0.7301    0.9098    1.6810 O.3     1  LIG1      -0.6300000000000008
     31 O           4.2058    1.2080    0.6466 O.3     1  LIG1      -0.5500000000000007
     32 O          -4.9187    1.5594   -0.5190 O.3     1  LIG1      -0.5299999999999994
     33 O          -3.0311    1.5956    0.6779 O.3     1  LIG1      -0.5600000000000005
     34 O          -1.5719    0.1972    2.2702 O.3     1  LIG1      -0.6400000000000006
     35 P          -0.2643   -0.3927    1.3873 P.3     1  LIG1       1.2300000000000004
     36 P          -2.3523    1.6062    2.1544 P.3     1  LIG1       1.2200000000000006
     37 H           6.4244   -3.1429    0.2015 H       1  LIG1          0.14
     38 H           4.6177   -1.4137    0.0183 H       1  LIG1       0.19999999999999996
     39 H          -7.1400    2.3421    0.5049 H       1  LIG1       0.16000000000000003
     40 H          -7.1994    0.6483    1.0345 H       1  LIG1       0.15000000000000002
     41 H           2.5263    1.3376    2.5732 H       1  LIG1       0.18999999999999995
     42 H           2.4110   -0.3012    1.8987 H       1  LIG1       0.18000000000000005
     43 H          -6.4778    1.5586   -1.7782 H       1  LIG1       0.16000000000000003
     44 H           2.4528    2.2777    0.2255 H       1  LIG1       0.15000000000000002
     45 H          -5.5681   -0.5538   -2.2339 H       1  LIG1       0.17000000000000004
     46 H           2.5765   -0.6643   -0.5546 H       1  LIG1       0.17000000000000004
     47 H          -4.9737   -2.2740   -0.7358 H       1  LIG1       0.16000000000000003
     48 H           4.0969   -0.0448   -2.3416 H       1  LIG1       0.16000000000000003
     49 H          -3.4051   -1.0933    0.8836 H       1  LIG1       0.17000000000000004
     50 H           5.3875    2.0181   -0.8861 H       1  LIG1       0.18000000000000005
     51 H          -4.7998    0.8385    1.4246 H       1  LIG1       0.16000000000000003
     52 H          -8.5703    0.3931   -0.9234 H       1  LIG1       0.42000000000000004
     53 H          -7.5080   -1.5223   -0.5131 H       1  LIG1       0.43999999999999995
     54 H           0.6016    0.3809   -1.0728 H       1  LIG1       0.45999999999999996
     55 H          -5.5032   -1.9898    1.5418 H       1  LIG1       0.44999999999999996
     56 H           2.5500    1.9113   -2.5720 H       1  LIG1       0.43000000000000005
     57 H          -2.1861   -0.4438   -0.8450 H       1  LIG1       0.45999999999999996
     58 H          -0.3441    2.3029    1.8039 H       1  LIG1            0.5
@<TRIPOS>BOND
     1    56    23    1
     2    23    11    1
     3    48    11    1
     4    45     8    1
     5    43     5    1
     6    11     9    1
     7    11    13    1
     8    21    54    1
     9    21     9    1
    10    20     8    1
    11    20    53    1
    12     8     5    1
    13     8    10    1
    14    24    57    1
    15    24    12    1
    16    25    15    2
    17    52    18    1
    18    50    13    1
    19     5    32    1
    20     5     3    1
    21     9    46    1
    22     9     6    1
    23    47    10    1
    24    15    16   ar
    25    15    17   ar
    26    13    17    1
    27    13    31    1
    28    16     7   ar
    29    32    14    1
    30    17     2   ar
    31    18     3    1
    32     7    19    2
    33     7     1   ar
    34    10    12    1
    35    10    22    1
    36     2     1   ar
    37     2    38    1
    38    27    35    2
    39     1    37    1
    40    12    14    1
    41    12    49    1
    42     3    39    1
    43     3    40    1
    44    44     6    1
    45     6    31    1
    46     6     4    1
    47    14    33    1
    48    14    51    1
    49    33    36    1
    50    22    55    1
    51    35    30    1
    52    35    26    1
    53    35    34    1
    54    30     4    1
    55     4    42    1
    56     4    41    1
    57    58    28    1
    58    28    36    1
    59    36    34    1
    60    36    29    2
