@<TRIPOS>MOLECULE
HSCJRCZFDFQWRP-JZMIEXBBSA-L	11095379	-2655.949188882121
 58 60 0 0 0
SMALL
MULLIKEN NwChem

@<TRIPOS>ATOM
      1 C           6.5418    0.9860   -0.5260 C.ar    1  LIG1       -0.2999999999999998
      2 C           5.4129    0.2739   -0.3187 C.ar    1  LIG1       0.08999999999999986
      3 C          -5.7329    1.1012    2.4960 C.3     1  LIG1       -0.040000000000000036
      4 C           1.5144    0.5158   -0.5243 C.3     1  LIG1       -0.08999999999999986
      5 C          -5.4411    0.3550    1.2001 C.3     1  LIG1       0.11000000000000032
      6 C           2.0177   -0.4999    0.4849 C.3     1  LIG1       0.15000000000000036
      7 C           7.7059    0.8015    0.3645 C.ar    1  LIG1       0.5199999999999996
      8 C          -4.5475   -0.8671    1.3865 C.3     1  LIG1       0.11000000000000032
      9 C           2.5199    0.1516    1.7773 C.3     1  LIG1       0.040000000000000036
     10 C          -4.3734   -1.5924    0.0459 C.3     1  LIG1       0.09999999999999964
     11 C           3.4584   -0.9362    2.3156 C.3     1  LIG1       0.09999999999999964
     12 C          -4.2370   -0.5737   -1.1040 C.3     1  LIG1       0.040000000000000036
     13 C           4.1308   -1.4031    1.0157 C.3     1  LIG1       0.28000000000000025
     14 C          -3.8205    0.7985   -0.5532 C.3     1  LIG1       0.33000000000000007
     15 C           6.4906   -0.8465    1.5764 C.ar    1  LIG1       0.6799999999999997
     16 N           7.6053   -0.1334    1.3690 N.ar    1  LIG1      -0.6699999999999999
     17 N           5.3331   -0.6149    0.7238 N.ar    1  LIG1      -0.5099999999999998
     18 O          -6.4491    2.3042    2.2440 O.3     1  LIG1      -0.6699999999999999
     19 O           8.7368    1.4790    0.1847 O.2     1  LIG1      -0.6699999999999999
     20 O          -5.1141   -1.7377    2.3615 O.3     1  LIG1      -0.6799999999999997
     21 O           1.4140    0.4308    2.6405 O.3     1  LIG1      -0.6600000000000001
     22 O          -3.3259   -2.5375    0.1334 O.3     1  LIG1      -0.7100000000000009
     23 O           2.6775   -1.9932    2.8631 O.3     1  LIG1      -0.6899999999999995
     24 O          -5.4994   -0.4589   -1.7580 O.3     1  LIG1      -0.6799999999999997
     25 O           6.3233   -1.7063    2.4646 O.2     1  LIG1      -0.6600000000000001
     26 O          -1.1520   -0.8742   -0.2894 O.3     1  LIG1      -0.6799999999999997
     27 O          -1.1245   -1.0385   -2.9201 O.2     1  LIG1      -0.6899999999999995
     28 O          -2.7781    0.7685   -3.7367 O.3     1  LIG1      -0.7200000000000006
     29 O          -2.2951    3.2453   -3.0706 O.2     1  LIG1      -0.5800000000000001
     30 O           0.8898   -0.0957   -1.6693 O.3     1  LIG1      -0.5299999999999994
     31 O           3.1469   -1.2313   -0.0118 O.3     1  LIG1      -0.5600000000000005
     32 O          -4.7816    1.3151    0.3514 O.3     1  LIG1      -0.5600000000000005
     33 O          -3.7625    1.7699   -1.5951 O.3     1  LIG1      -0.5800000000000001
     34 O          -1.2507    1.2495   -1.7471 O.3     1  LIG1      -0.6799999999999997
     35 P          -0.7018   -0.3680   -1.6355 P.3     1  LIG1       1.2599999999999998
     36 P          -2.4748    1.8558   -2.6073 P.3     1  LIG1       1.2200000000000006
     37 H           6.6195    1.6879   -1.3501 H       1  LIG1          0.13
     38 H           4.5358    0.3336   -0.9530 H       1  LIG1       0.18999999999999995
     39 H          -4.7777    1.3038    3.0094 H       1  LIG1          0.14
     40 H          -6.3478    0.4773    3.1509 H       1  LIG1       0.16000000000000003
     41 H           0.8118    1.1884   -0.0188 H       1  LIG1       0.18999999999999995
     42 H           2.3482    1.1051   -0.9166 H       1  LIG1       0.19999999999999996
     43 H          -6.3854    0.0547    0.7249 H       1  LIG1       0.15000000000000002
     44 H           1.2003   -1.1900    0.7250 H       1  LIG1       0.17000000000000004
     45 H          -3.5557   -0.5222    1.7232 H       1  LIG1       0.15000000000000002
     46 H           3.0863    1.0663    1.5513 H       1  LIG1       0.18000000000000005
     47 H          -5.2962   -2.1559   -0.1403 H       1  LIG1       0.16000000000000003
     48 H           4.2059   -0.5870    3.0337 H       1  LIG1       0.16000000000000003
     49 H          -3.4743   -0.9372   -1.8007 H       1  LIG1       0.16000000000000003
     50 H           4.4043   -2.4574    1.0894 H       1  LIG1       0.17000000000000004
     51 H          -2.8445    0.7333   -0.0684 H       1  LIG1       0.18999999999999995
     52 H          -5.9742    2.7192    1.5026 H       1  LIG1       0.43000000000000005
     53 H          -4.5875   -2.5522    2.2804 H       1  LIG1       0.43000000000000005
     54 H           1.7564    0.9623    3.3760 H       1  LIG1       0.44999999999999996
     55 H          -2.4724   -2.0489    0.0211 H       1  LIG1       0.44999999999999996
     56 H           1.8443   -1.5758    3.1459 H       1  LIG1       0.43000000000000005
     57 H          -5.4099    0.3086   -2.3494 H       1  LIG1       0.43000000000000005
     58 H          -2.1629   -0.0349   -3.6148 H       1  LIG1           0.49
@<TRIPOS>BOND
     1    28    58    1
     2    28    36    1
     3    29    36    2
     4    27    35    2
     5    36    34    1
     6    36    33    1
     7    57    24    1
     8    49    12    1
     9    24    12    1
    10    34    35    1
    11    30    35    1
    12    30     4    1
    13    35    26    1
    14    33    14    1
    15    37     1    1
    16    12    14    1
    17    12    10    1
    18    38     2    1
    19    42     4    1
    20    14    51    1
    21    14    32    1
    22     1     2   ar
    23     1     7   ar
    24     4    41    1
    25     4     6    1
    26     2    17   ar
    27    47    10    1
    28    31     6    1
    29    31    13    1
    30    55    22    1
    31    10    22    1
    32    10     8    1
    33    19     7    2
    34    32     5    1
    35     7    16   ar
    36     6    44    1
    37     6     9    1
    38    17    13    1
    39    17    15   ar
    40    43     5    1
    41    13    50    1
    42    13    11    1
    43     5     8    1
    44     5     3    1
    45    16    15   ar
    46     8    45    1
    47     8    20    1
    48    52    18    1
    49    46     9    1
    50    15    25    2
    51     9    11    1
    52     9    21    1
    53    18     3    1
    54    53    20    1
    55    11    23    1
    56    11    48    1
    57     3    39    1
    58     3    40    1
    59    21    54    1
    60    23    56    1
