@<TRIPOS>MOLECULE
HSHNITRMYYLLCV-UHFFFAOYSA-N	6044641	-611.4531263114753
 21 22 0 0 0
SMALL
MULLIKEN NwChem

@<TRIPOS>ATOM
      1 C           0.0535   -3.1600   -0.2312 C.3     1  LIG1      -0.5499999999999998
      2 C           1.7188    0.5629   -1.8595 C.ar    1  LIG1      -0.20000000000000018
      3 C           1.1963   -0.6151   -1.3483 C.ar    1  LIG1      -0.21999999999999975
      4 C          -1.2392   -1.6547    1.2831 C.ar    1  LIG1       -0.3200000000000003
      5 C           0.3690    1.8418   -0.2956 C.ar    1  LIG1       -0.2400000000000002
      6 C          -0.3374   -1.7990    0.2786 C.ar    1  LIG1      0.20999999999999996
      7 C           1.3024    1.7975   -1.3298 C.ar    1  LIG1       0.3600000000000003
      8 C           0.2524   -0.6085   -0.3050 C.ar    1  LIG1       0.07000000000000028
      9 C          -0.1440    0.6486    0.2042 C.ar    1  LIG1       0.3200000000000003
     10 C          -1.6461   -0.3605    1.8077 C.ar    1  LIG1       0.5999999999999996
     11 O           1.7779    2.9879   -1.7883 O.3     1  LIG1      -0.6699999999999999
     12 O          -2.4401   -0.1667    2.6975 O.2     1  LIG1      -0.5500000000000007
     13 O          -1.0516    0.7580    1.2140 O.2     1  LIG1      -0.5399999999999991
     14 H          -0.1768   -3.2596   -1.2990 H       1  LIG1       0.18999999999999995
     15 H          -0.4740   -3.9508    0.3082 H       1  LIG1       0.18999999999999995
     16 H           1.1317   -3.3263   -0.1168 H       1  LIG1       0.18999999999999995
     17 H           2.4474    0.5359   -2.6665 H       1  LIG1       0.18000000000000005
     18 H           1.5258   -1.5612   -1.7652 H       1  LIG1       0.18000000000000005
     19 H          -1.7121   -2.5081    1.7561 H       1  LIG1       0.17000000000000004
     20 H           0.0443    2.7897    0.1167 H       1  LIG1       0.17000000000000004
     21 H           2.4155    2.8268   -2.5011 H       1  LIG1       0.45999999999999996
@<TRIPOS>BOND
     1    17     2    1
     2    21    11    1
     3     2     3   ar
     4     2     7   ar
     5    11     7    1
     6    18     3    1
     7     3     8   ar
     8     7     5   ar
     9    14     1    1
    10     8     9   ar
    11     8     6   ar
    12     5    20    1
    13     5     9   ar
    14     1    16    1
    15     1     6    1
    16     1    15    1
    17     9    13   ar
    18     6     4   ar
    19    13    10   ar
    20     4    19    1
    21     4    10   ar
    22    10    12    2
