@<TRIPOS>MOLECULE
HUHWZXWWOFSFKF-UHFFFAOYSA-F	11095378	-2969.0947786339834
 96 100 0 0 0
SMALL
MULLIKEN NwChem

@<TRIPOS>ATOM
      1 C           3.8682   -2.1336    2.8603 C.3     1  LIG1      -0.33999999999999986
      2 C           4.3750    1.1155   -2.7777 C.3     1  LIG1      -0.33000000000000007
      3 C          -3.0475   -4.2421   -1.6451 C.3     1  LIG1      -0.33999999999999986
      4 C          -4.4307    3.3133    1.4490 C.3     1  LIG1      -0.33999999999999986
      5 C           4.9227   -3.2638    2.9509 C.3     1  LIG1       -0.3600000000000003
      6 C           5.6922    1.9236   -2.6844 C.3     1  LIG1       -0.3700000000000001
      7 C          -3.0128   -4.1273   -3.1895 C.3     1  LIG1       -0.3600000000000003
      8 C          -4.5772    3.7396    2.9304 C.3     1  LIG1       -0.3700000000000001
      9 C           1.4225   -4.2336    2.7142 C.3     1  LIG1       -0.4500000000000002
     10 C          -4.9797   -1.7322   -1.0831 C.3     1  LIG1       -0.4900000000000002
     11 C           2.2158    3.4880   -3.1917 C.3     1  LIG1       -0.4900000000000002
     12 C          -2.0484    5.3246    0.5836 C.3     1  LIG1       -0.4800000000000004
     13 C           3.6156   -0.2855    0.1160 C.2     1  LIG1      -0.41999999999999993
     14 C          -0.2012   -3.5638   -0.0758 C.2     1  LIG1      -0.41999999999999993
     15 C          -3.3019    0.2820    0.9266 C.2     1  LIG1      -0.4299999999999997
     16 C           0.3755    3.5381   -0.4906 C.2     1  LIG1      -0.41000000000000014
     17 C           2.8337   -2.2320    1.7503 C.ar    1  LIG1          0.0
     18 C           3.2687    1.5015   -1.8101 C.ar    1  LIG1          0.0
     19 C          -2.6743   -2.9918   -0.8622 C.ar    1  LIG1          0.0
     20 C          -3.0490    2.9080    0.9625 C.ar    1  LIG1      0.009999999999999787
     21 C           1.7372   -3.1764    1.6825 C.ar    1  LIG1      0.03000000000000025
     22 C          -3.5617   -1.8815   -0.5822 C.ar    1  LIG1      0.04999999999999982
     23 C           2.3248    2.5859   -1.9844 C.ar    1  LIG1      0.040000000000000036
     24 C          -1.9784    3.8151    0.6100 C.ar    1  LIG1      0.040000000000000036
     25 C           2.7227   -1.3930    0.6413 C.ar    1  LIG1          0.25
     26 C           2.9462    0.8570   -0.6173 C.ar    1  LIG1       0.2400000000000002
     27 C          -1.4650   -2.7272   -0.2278 C.ar    1  LIG1          0.25
     28 C          -2.6106    1.6164    0.6773 C.ar    1  LIG1          0.25
     29 C           1.0022   -2.8854    0.5378 C.ar    1  LIG1       0.21999999999999975
     30 C          -2.8561   -0.9669    0.1953 C.ar    1  LIG1       0.23000000000000043
     31 C           1.4601    2.5638   -0.8917 C.ar    1  LIG1       0.2400000000000002
     32 C          -0.9281    3.0458    0.1208 C.ar    1  LIG1       0.2400000000000002
     33 C           5.9809   -3.1300    4.1102 C.2     1  LIG1       0.5300000000000002
     34 C           6.7965    1.5746   -3.7497 C.2     1  LIG1       0.5199999999999996
     35 C          -3.3907   -5.4077   -4.0298 C.2     1  LIG1       0.5099999999999998
     36 C          -5.9855    4.3109    3.3433 C.2     1  LIG1       0.5199999999999996
     37 C           1.7770   -5.7488    2.4055 C.2     1  LIG1       0.5199999999999996
     38 C          -6.1676   -2.5990   -0.4722 C.2     1  LIG1       0.5199999999999996
     39 C           3.0369    4.8454   -3.3178 C.2     1  LIG1       0.5300000000000002
     40 C          -1.6596    6.2301    1.8337 C.2     1  LIG1       0.5199999999999996
     41 N           1.6197   -1.8084   -0.0785 N.ar    1  LIG1      -0.6799999999999997
     42 N           1.8563    1.5187   -0.0738 N.ar    1  LIG1      -0.6900000000000004
     43 N          -1.5825   -1.4916    0.3861 N.ar    1  LIG1      -0.6799999999999997
     44 N          -1.3123    1.7149    0.1980 N.ar    1  LIG1        -0.71
     45 O           7.0484   -3.7986    3.9572 O.co2   1  LIG1      -0.6999999999999993
     46 O           5.6780   -2.4058    5.1007 O.co2   1  LIG1      -0.6799999999999997
     47 O           7.9725    1.9597   -3.4656 O.co2   1  LIG1      -0.7100000000000009
     48 O           6.4347    0.9717   -4.8006 O.co2   1  LIG1      -0.6799999999999997
     49 O          -3.4609   -6.5162   -3.4316 O.co2   1  LIG1      -0.6799999999999997
     50 O          -3.5683   -5.2000   -5.2704 O.co2   1  LIG1      -0.7100000000000009
     51 O          -6.2660    4.2468    4.5799 O.co2   1  LIG1      -0.6999999999999993
     52 O          -6.7089    4.8123    2.4344 O.co2   1  LIG1      -0.6899999999999995
     53 O           1.4654   -6.1786    1.2663 O.co2   1  LIG1      -0.6699999999999999
     54 O           2.2708   -6.3956    3.3752 O.co2   1  LIG1      -0.6899999999999995
     55 O          -7.3072   -2.2637   -0.9158 O.co2   1  LIG1      -0.6999999999999993
     56 O          -5.8957   -3.5162    0.3399 O.co2   1  LIG1      -0.6699999999999999
     57 O           3.9342    5.0926   -2.4773 O.co2   1  LIG1      -0.6699999999999999
     58 O           2.6885    5.5418   -4.3185 O.co2   1  LIG1      -0.6899999999999995
     59 O          -1.6519    7.4690    1.5622 O.co2   1  LIG1      -0.6899999999999995
     60 O          -1.4301    5.6776    2.9356 O.co2   1  LIG1      -0.6699999999999999
     61 H           4.4000   -1.1754    2.7752 H       1  LIG1          0.13
     62 H           3.3667   -2.0913    3.8370 H       1  LIG1          0.13
     63 H           4.0162    1.2120   -3.8105 H       1  LIG1          0.13
     64 H           4.6102    0.0477   -2.6578 H       1  LIG1          0.13
     65 H          -2.3914   -5.0743   -1.3596 H       1  LIG1          0.12
     66 H          -4.0576   -4.5347   -1.3332 H       1  LIG1          0.12
     67 H          -4.7957    4.1596    0.8511 H       1  LIG1          0.12
     68 H          -5.1391    2.4957    1.2490 H       1  LIG1          0.13
     69 H           5.4678   -3.3488    2.0003 H       1  LIG1       0.10999999999999999
     70 H           4.4037   -4.2257    3.0824 H       1  LIG1          0.13
     71 H           5.4455    2.9927   -2.7636 H       1  LIG1          0.13
     72 H           6.1365    1.8004   -1.6859 H       1  LIG1       0.10999999999999999
     73 H          -2.0023   -3.8206   -3.5073 H       1  LIG1          0.13
     74 H          -3.6707   -3.3134   -3.5241 H       1  LIG1          0.13
     75 H          -4.3477    2.8933    3.5936 H       1  LIG1          0.12
     76 H          -3.8108    4.4986    3.1480 H       1  LIG1          0.13
     77 H           0.3352   -4.2318    2.8977 H       1  LIG1          0.14
     78 H           1.8987   -3.9697    3.6653 H       1  LIG1          0.12
     79 H          -5.2987   -0.6845   -0.9977 H       1  LIG1          0.13
     80 H          -5.0063   -1.9476   -2.1620 H       1  LIG1       0.15000000000000002
     81 H           1.1646    3.7665   -3.3510 H       1  LIG1          0.14
     82 H           2.4939    2.9115   -4.0873 H       1  LIG1       0.15000000000000002
     83 H          -3.0810    5.6214    0.3432 H       1  LIG1          0.14
     84 H          -1.4413    5.7066   -0.2503 H       1  LIG1          0.14
     85 H           4.3676   -0.7028   -0.5702 H       1  LIG1       0.17000000000000004
     86 H           4.1964    0.1001    0.9682 H       1  LIG1       0.17000000000000004
     87 H           0.0764   -3.9580   -1.0659 H       1  LIG1       0.16000000000000003
     88 H          -0.3844   -4.4648    0.5226 H       1  LIG1       0.17000000000000004
     89 H          -3.2604    0.0705    2.0114 H       1  LIG1       0.17000000000000004
     90 H          -4.3689    0.4147    0.7168 H       1  LIG1       0.18000000000000005
     91 H           0.8011    4.2733    0.2110 H       1  LIG1       0.17000000000000004
     92 H           0.1450    4.1309   -1.3879 H       1  LIG1       0.18000000000000005
     93 H           1.2899   -1.3485   -0.9146 H       1  LIG1          0.35
     94 H           1.4094    1.2707    0.7966 H       1  LIG1          0.36
     95 H          -0.8990   -1.1414    1.0422 H       1  LIG1          0.36
     96 H          -0.8212    0.9522   -0.2477 H       1  LIG1           0.35
@<TRIPOS>BOND
     1    50    35   ar
     2    48    34   ar
     3    58    39   ar
     4    82    11    1
     5    35    49   ar
     6    35     7    1
     7    63     2    1
     8    34    47   ar
     9    34     6    1
    10    74     7    1
    11    73     7    1
    12    81    11    1
    13    39    11    1
    14    39    57   ar
    15    11    23    1
    16     7     3    1
    17     2     6    1
    18     2    64    1
    19     2    18    1
    20    71     6    1
    21     6    72    1
    22    80    10    1
    23    23    18   ar
    24    23    31   ar
    25    18    26   ar
    26     3    65    1
    27     3    66    1
    28     3    19    1
    29    92    16    1
    30    10    79    1
    31    10    22    1
    32    10    38    1
    33    87    14    1
    34    55    38   ar
    35    93    41    1
    36    31    16    2
    37    31    42   ar
    38    19    22   ar
    39    19    27   ar
    40    26    42   ar
    41    26    13    2
    42    22    30   ar
    43    85    13    1
    44    16    32    1
    45    16    91    1
    46    38    56   ar
    47    84    12    1
    48    96    44    1
    49    27    14    1
    50    27    43   ar
    51    41    29   ar
    52    41    25   ar
    53    14    88    1
    54    14    29    2
    55    42    94    1
    56    13    25    1
    57    13    86    1
    58    32    44   ar
    59    32    24   ar
    60    30    43   ar
    61    30    15    1
    62    44    28   ar
    63    83    12    1
    64    43    95    1
    65    29    21   ar
    66    12    24    1
    67    12    40    1
    68    24    20   ar
    69    25    17   ar
    70    28    15    2
    71    28    20   ar
    72    90    15    1
    73    67     4    1
    74    15    89    1
    75    20     4    1
    76    68     4    1
    77    53    37   ar
    78     4     8    1
    79    59    40   ar
    80    21    17   ar
    81    21     9    1
    82    17     1    1
    83    40    60   ar
    84    69     5    1
    85    37     9    1
    86    37    54   ar
    87    52    36   ar
    88     9    77    1
    89     9    78    1
    90    61     1    1
    91     1     5    1
    92     1    62    1
    93     8    76    1
    94     8    36    1
    95     8    75    1
    96     5    70    1
    97     5    33    1
    98    36    51   ar
    99    45    33   ar
   100    33    46   ar
