@<TRIPOS>MOLECULE
HUMNYLRZRPPJDN-UHFFFAOYSA-N	6044643	-345.5000476678285
 14 14 0 0 0
SMALL
MULLIKEN NwChem

@<TRIPOS>ATOM
      1 C          -2.2045   -0.2605    0.0920 C.ar    1  LIG1      -0.1299999999999999
      2 C          -1.5913    0.9983    0.0581 C.ar    1  LIG1      -0.15000000000000036
      3 C          -1.4312   -1.4238    0.0698 C.ar    1  LIG1      -0.15000000000000036
      4 C          -0.2051    1.0939    0.0014 C.ar    1  LIG1      -0.16999999999999993
      5 C          -0.0414   -1.3287    0.0125 C.ar    1  LIG1      -0.1900000000000004
      6 C           2.0522    0.0254   -0.0851 C.2     1  LIG1       0.20000000000000018
      7 C           0.5762   -0.0718   -0.0221 C.ar    1  LIG1       0.08999999999999986
      8 O           2.6761    1.0692   -0.1162 O.2     1  LIG1      -0.47000000000000064
      9 H          -3.2880   -0.3328    0.1358 H       1  LIG1       0.17000000000000004
     10 H          -2.1994    1.8985    0.0757 H       1  LIG1       0.17000000000000004
     11 H          -1.9110   -2.3981    0.0966 H       1  LIG1       0.17000000000000004
     12 H           0.2994    2.0551   -0.0261 H       1  LIG1       0.16000000000000003
     13 H           0.5704   -2.2285   -0.0054 H       1  LIG1       0.18000000000000005
     14 H           2.5819   -0.9541   -0.1039 H       1  LIG1           0.14
@<TRIPOS>BOND
     1     8     6    2
     2    14     6    1
     3     6     7    1
     4    12     4    1
     5     7     4   ar
     6     7     5   ar
     7    13     5    1
     8     4     2   ar
     9     5     3   ar
    10     2    10    1
    11     2     1   ar
    12     3     1   ar
    13     3    11    1
    14     1     9    1
