@<TRIPOS>MOLECULE
HVRNKDVLFAVCJF-VJANTYMQSA-J	6044644	-2559.756533564431
 86 88 0 0 0
SMALL
MULLIKEN NwChem

@<TRIPOS>ATOM
      1 C          -3.3051    4.3813   -6.9672 C.3     1  LIG1       -0.33999999999999986
      2 C          -0.0518    2.3828   -2.8987 C.ar    1  LIG1      -0.20999999999999996
      3 C          -0.1511    0.0797   -2.2287 C.ar    1  LIG1      -0.20000000000000018
      4 C          -0.9530    2.1379   -3.9338 C.ar    1  LIG1      -0.20000000000000018
      5 C          -1.0613   -0.1763   -3.2479 C.ar    1  LIG1      -0.21999999999999975
      6 C           2.2570   -3.2530    5.1805 C.3     1  LIG1      -0.2999999999999998
      7 C           2.7533   -0.0286    1.8119 C.3     1  LIG1      -0.29000000000000004
      8 CB          1.0915   -0.7070    9.9250 C.3     1  LIG1      -0.2599999999999998
      9 C           1.4802   -1.9367    5.5035 C.3     1  LIG1       -0.3700000000000001
     10 C           2.3254   -1.5188    1.6330 C.3     1  LIG1       -0.3700000000000001
     11 CG          1.7267   -1.8938   10.6751 C.3     1  LIG1       -0.3700000000000001
     12 C          -3.1872    1.5560   -5.8237 C.3     1  LIG1       -0.16000000000000014
     13 C          -2.3879    0.9116   -8.1315 C.3     1  LIG1       -0.16000000000000014
     14 C           0.3752    1.3655   -2.0369 C.ar    1  LIG1       0.05999999999999961
     15 C          -1.4777    0.8447   -4.1261 C.ar    1  LIG1       0.33000000000000007
     16 C          -2.5230    2.0703   -7.1300 C.3     1  LIG1       0.019999999999999574
     17 CA          2.1819   -3.8395    3.7402 C.3     1  LIG1       -0.05999999999999961
     18 CA          1.2132   -0.7156    8.3671 C.3     1  LIG1       -0.03000000000000025
     19 CA          3.1345    0.7874    0.5459 C.3     1  LIG1       -0.040000000000000036
     20 C           0.4682   -2.2194    6.6156 C.2     1  LIG1       0.4800000000000004
     21 C           3.3868   -2.5217    2.0707 C.2     1  LIG1       0.4900000000000002
     22 CD          3.1959   -1.6633   11.2055 C.2     1  LIG1          0.54
     23 C          -4.3726    2.7948   -8.5536 C.ar    1  LIG1       0.1900000000000004
     24 C          -4.5866    1.4891   -8.8829 C.ar    1  LIG1       0.41999999999999993
     25 C           1.3227    1.7104   -0.9145 C.2     1  LIG1          0.54
     26 C          -5.2894    3.8021   -9.2010 C.ar    1  LIG1       0.46999999999999975
     27 C           0.7768   -3.8409    3.0208 C.2     1  LIG1       0.5700000000000003
     28 C           2.6955   -0.6221    8.0106 C.2     1  LIG1       0.5999999999999996
     29 C           4.4724    0.3320   -0.1231 C.2     1  LIG1       0.5300000000000002
     30 C          -6.6635    2.0435  -10.0375 C.ar    1  LIG1       0.5700000000000003
     31 N          -7.6838    1.5268  -10.6783 N.pl3   1  LIG1      -0.8300000000000001
     32 N          -2.3808    0.5361   -5.1526 N.pl3   1  LIG1      -0.6600000000000001
     33 N          -3.6888    0.4280   -8.5978 N.pl3   1  LIG1      -0.6600000000000001
     34 N           3.3461   -3.4406    2.9490 N.2     1  LIG1      -0.5199999999999996
     35 N           0.3969   -1.7886    7.8236 N.2     1  LIG1      -0.5199999999999996
     36 N           2.0849    0.6819   -0.4724 N.am    1  LIG1      -0.6100000000000003
     37 N          -5.7240    1.1003   -9.5602 N.ar    1  LIG1      -0.6900000000000004
     38 N          -6.4159    3.3595   -9.8236 N.ar    1  LIG1      -0.6600000000000001
     39 N          -3.2256    3.1731   -7.7802 N.pl3   1  LIG1      -0.5099999999999998
     40 O          -0.4532   -3.1275    6.2445 O.2     1  LIG1      -0.6699999999999999
     41 O           4.5821   -2.3675    1.4326 O.2     1  LIG1      -0.6799999999999997
     42 OE2         3.6297   -2.5811   11.9567 O.co2   1  LIG1      -0.6999999999999993
     43 OE1         3.7695   -0.6012   10.8416 O.co2   1  LIG1      -0.6699999999999999
     44 O           1.3463    2.8598   -0.4542 O.2     1  LIG1      -0.6099999999999994
     45 O          -5.0096    5.0229   -9.1576 O.2     1  LIG1      -0.6600000000000001
     46 O           0.7704   -4.2356    1.8407 O.co2   1  LIG1      -0.6500000000000004
     47 OXT        -0.2552   -3.5101    3.7015 O.co2   1  LIG1      -0.6699999999999999
     48 O           3.2520    0.4103    7.6877 O.2     1  LIG1      -0.5500000000000007
     49 OXT         3.3545   -1.8027    8.1113 O.3     1  LIG1      -0.5800000000000001
     50 OXT         5.4716    1.0554    0.0130 O.co2   1  LIG1      -0.6300000000000008
     51 O           4.3668   -0.7777   -0.7534 O.co2   1  LIG1      -0.6600000000000001
     52 H          -3.9427    4.2785   -6.0692 H       1  LIG1          0.13
     53 H          -3.7174    5.1777   -7.5874 H       1  LIG1       0.18000000000000005
     54 H          -2.2921    4.6411   -6.6278 H       1  LIG1       0.15000000000000002
     55 H           0.3454    3.3804   -2.7391 H       1  LIG1       0.15000000000000002
     56 H           0.1240   -0.7202   -1.5474 H       1  LIG1       0.16000000000000003
     57 H          -1.2458    2.9472   -4.5929 H       1  LIG1       0.16000000000000003
     58 H          -1.4729   -1.1788   -3.3590 H       1  LIG1       0.16000000000000003
     59 H           1.9013   -4.0265    5.8721 H       1  LIG1       0.15000000000000002
     60 H           3.3195   -3.1070    5.4136 H       1  LIG1       0.15000000000000002
     61 H           3.5926    0.0414    2.5139 H       1  LIG1       0.16000000000000003
     62 H           1.9136    0.5009    2.2759 H       1  LIG1       0.16000000000000003
     63 HB1         1.5593    0.2137   10.2941 H       1  LIG1          0.14
     64 HB2         0.0101   -0.6669   10.1200 H       1  LIG1          0.13
     65 H           2.1643   -1.1278    5.7665 H       1  LIG1       0.17000000000000004
     66 H           0.9188   -1.6182    4.6218 H       1  LIG1       0.18000000000000005
     67 H           1.4101   -1.6987    2.1928 H       1  LIG1       0.17000000000000004
     68 H           2.0772   -1.7339    0.5862 H       1  LIG1       0.18000000000000005
     69 HG1         1.1131   -2.1568   11.5558 H       1  LIG1          0.13
     70 HG2         1.7230   -2.7866   10.0389 H       1  LIG1          0.14
     71 H          -3.3942    2.3933   -5.1464 H       1  LIG1       0.16000000000000003
     72 H          -4.1557    1.1152   -6.0811 H       1  LIG1       0.17000000000000004
     73 H          -1.8207    1.2593   -9.0040 H       1  LIG1       0.16000000000000003
     74 H          -1.8409    0.0858   -7.6682 H       1  LIG1       0.17000000000000004
     75 H          -1.5154    2.4245   -6.8680 H       1  LIG1          0.14
     76 HA          2.3487   -4.9205    3.8884 H       1  LIG1       0.15000000000000002
     77 HA          0.8082    0.2444    8.0228 H       1  LIG1       0.16000000000000003
     78 HA          3.2127    1.8414    0.8233 H       1  LIG1          0.14
     79 H          -8.2472    2.3281  -10.9801 H       1  LIG1          0.26
     80 H          -2.8790   -0.3254   -4.9742 H       1  LIG1          0.36
     81 H          -4.1033   -0.2471   -7.9539 H       1  LIG1          0.35
     82 H           2.2223   -0.1323   -1.0639 H       1  LIG1          0.36
     83 H          -5.7014    0.2120  -10.0426 H       1  LIG1       0.33999999999999997
     84 H          -0.3349   -3.3322    5.2425 H       1  LIG1       0.44999999999999996
     85 HXT         4.2990   -1.5538    8.1171 H       1  LIG1       0.43000000000000005
     86 H           4.4712   -1.8252    0.6066 H       1  LIG1       0.44999999999999996
@<TRIPOS>BOND
     1    79    31    1
     2    31    30    1
     3    83    37    1
     4    30    38   ar
     5    30    37   ar
     6    38    26   ar
     7    37    24   ar
     8    26    45    2
     9    26    23   ar
    10    73    13    1
    11    24    33    1
    12    24    23   ar
    13    33    13    1
    14    33    81    1
    15    23    39    1
    16    13    74    1
    17    13    16    1
    18    39    16    1
    19    39     1    1
    20    53     1    1
    21    16    75    1
    22    16    12    1
    23     1    54    1
    24     1    52    1
    25    72    12    1
    26    12    32    1
    27    12    71    1
    28    32    80    1
    29    32    15    1
    30    57     4    1
    31    15     4   ar
    32    15     5   ar
    33     4     2   ar
    34    58     5    1
    35     5     3   ar
    36     2    55    1
    37     2    14   ar
    38     3    14   ar
    39     3    56    1
    40    14    25    1
    41    82    36    1
    42    25    36   am
    43    25    44    2
    44    51    29   ar
    45    36    19    1
    46    29    50   ar
    47    29    19    1
    48    19    78    1
    49    19     7    1
    50    68    10    1
    51    86    41    1
    52    41    21    1
    53    10     7    1
    54    10    21    1
    55    10    67    1
    56     7    62    1
    57     7    61    1
    58    46    27   ar
    59    21    34    2
    60    34    17    1
    61    27    47   ar
    62    27    17    1
    63    17    76    1
    64    17     6    1
    65    66     9    1
    66     6    60    1
    67     6     9    1
    68     6    59    1
    69    84    40    1
    70     9    65    1
    71     9    20    1
    72    40    20    1
    73    20    35    2
    74    48    28    2
    75    35    18    1
    76    28    49    1
    77    28    18    1
    78    77    18    1
    79    49    85    1
    80    18     8    1
    81     8    64    1
    82     8    63    1
    83     8    11    1
    84    70    11    1
    85    11    22    1
    86    11    69    1
    87    43    22   ar
    88    22    42   ar
