@<TRIPOS>MOLECULE
HVYWMOMLDIMFJA-DPAQBDIFSA-N	6044646	-1131.2287760923493
 74 77 0 0 0
SMALL
MULLIKEN NwChem

@<TRIPOS>ATOM
      1 C           2.6279    0.6297    7.2385 C.3     1  LIG1      -0.45999999999999996
      2 C           2.5453    3.0720    6.6193 C.3     1  LIG1      -0.45999999999999996
      3 C           1.0262   -1.1199    3.3818 C.3     1  LIG1      -0.46999999999999975
      4 C           1.9012   -0.6265   -4.0583 C.3     1  LIG1      -0.4900000000000002
      5 C           0.4828    1.1325    0.5367 C.3     1  LIG1         -0.5
      6 C          -0.1130    0.3066    5.7834 C.3     1  LIG1      -0.28000000000000025
      7 C           0.8262    1.5150    5.6583 C.3     1  LIG1        -0.25
      8 C          -0.9451    0.0250    4.5148 C.3     1  LIG1      -0.2699999999999996
      9 C          -1.1037    1.3292   -3.9203 C.2     1  LIG1      -0.23000000000000043
     10 C          -1.4409    1.3476   -2.4531 C.3     1  LIG1      -0.3099999999999996
     11 C          -2.2295    0.5249    1.8498 C.3     1  LIG1      -0.2999999999999998
     12 C          -2.5393    0.6727    0.3343 C.3     1  LIG1      -0.2999999999999998
     13 C          -0.1784   -2.1843   -5.8347 C.3     1  LIG1      -0.29000000000000004
     14 C           0.5314   -1.7666   -1.3687 C.3     1  LIG1      -0.2999999999999998
     15 C          -0.1761   -2.0774   -4.3002 C.3     1  LIG1      -0.29000000000000004
     16 C           0.6668   -1.3820    0.1318 C.3     1  LIG1      -0.2999999999999998
     17 C          -0.2590    0.3319   -6.0257 C.3     1  LIG1      -0.3600000000000003
     18 C           1.7104    1.8102    6.8830 C.3     1  LIG1      -0.07000000000000028
     19 C          -0.1047   -0.0879    3.2215 C.3     1  LIG1      -0.08999999999999986
     20 C          -0.3413    0.4041   -4.5194 C.2     1  LIG1      0.16999999999999993
     21 C          -0.8751   -0.9994   -6.4955 C.3     1  LIG1       0.16000000000000014
     22 C          -1.2381   -0.0552   -1.8695 C.3     1  LIG1      -0.09999999999999964
     23 C          -0.9637   -0.3782    1.9709 C.3     1  LIG1      -0.08999999999999986
     24 C          -1.5156   -0.2428   -0.3552 C.3     1  LIG1      -0.11000000000000032
     25 C           0.1837   -0.5495   -2.2407 C.3     1  LIG1      -0.11000000000000032
     26 C           0.3772   -0.7223   -3.7761 C.3     1  LIG1      0.040000000000000036
     27 C          -0.2708   -0.2179    0.5707 C.3     1  LIG1      0.11000000000000032
     28 O          -0.7602   -1.1775   -7.9049 O.3     1  LIG1      -0.6899999999999995
     29 H           3.2479    0.3493    6.3765 H       1  LIG1          0.14
     30 H           2.0646   -0.2554    7.5487 H       1  LIG1       0.15000000000000002
     31 H           3.3045    0.8890    8.0601 H       1  LIG1          0.14
     32 H           3.2059    2.9201    5.7539 H       1  LIG1          0.14
     33 H           1.9066    3.9367    6.3994 H       1  LIG1          0.14
     34 H           3.1775    3.3243    7.4764 H       1  LIG1          0.14
     35 H           0.6151   -2.1285    3.5167 H       1  LIG1          0.14
     36 H           1.6758   -1.1307    2.5065 H       1  LIG1       0.15000000000000002
     37 H           1.6537   -0.9048    4.2517 H       1  LIG1       0.15000000000000002
     38 H           2.1568   -0.8261   -5.1034 H       1  LIG1       0.16000000000000003
     39 H           2.2699    0.3742   -3.8049 H       1  LIG1       0.15000000000000002
     40 H           2.4528   -1.3496   -3.4478 H       1  LIG1       0.15000000000000002
     41 H          -0.1064    1.9472    0.9684 H       1  LIG1       0.15000000000000002
     42 H           1.4129    1.0644    1.1109 H       1  LIG1       0.15000000000000002
     43 H           0.7591    1.4311   -0.4748 H       1  LIG1       0.16000000000000003
     44 H           0.4637   -0.5872    6.0417 H       1  LIG1          0.14
     45 H          -0.7963    0.4712    6.6296 H       1  LIG1          0.13
     46 H           0.2277    2.4075    5.4280 H       1  LIG1          0.13
     47 H           1.4961    1.3781    4.7996 H       1  LIG1          0.14
     48 H          -1.5160   -0.9040    4.6619 H       1  LIG1          0.12
     49 H          -1.6838    0.8274    4.3968 H       1  LIG1          0.14
     50 H          -1.5648    2.0955   -4.5430 H       1  LIG1          0.12
     51 H          -0.8325    2.0928   -1.9183 H       1  LIG1       0.15000000000000002
     52 H          -2.4830    1.6712   -2.3275 H       1  LIG1          0.14
     53 H          -2.0364    1.5089    2.2916 H       1  LIG1          0.14
     54 H          -3.0687    0.0947    2.4046 H       1  LIG1          0.14
     55 H          -2.4002    1.7112    0.0154 H       1  LIG1          0.14
     56 H          -3.5695    0.3995    0.0804 H       1  LIG1          0.13
     57 H           0.8472   -2.2351   -6.2242 H       1  LIG1          0.14
     58 H          -0.6748   -3.1073   -6.1530 H       1  LIG1          0.14
     59 H          -0.2586   -2.5188   -1.4887 H       1  LIG1          0.14
     60 H           1.4562   -2.2530   -1.6957 H       1  LIG1          0.14
     61 H           0.4065   -2.9065   -3.8801 H       1  LIG1          0.14
     62 H          -1.2050   -2.1989   -3.9371 H       1  LIG1          0.14
     63 H           1.7102   -1.1130    0.3345 H       1  LIG1          0.14
     64 H           0.4556   -2.2714    0.7361 H       1  LIG1          0.13
     65 H           0.7721    0.3738   -6.3979 H       1  LIG1          0.14
     66 H          -0.8004    1.1729   -6.4823 H       1  LIG1          0.14
     67 H           1.0543    2.0046    7.7451 H       1  LIG1          0.12
     68 H           0.3592    0.8954    3.0728 H       1  LIG1          0.13
     69 H          -1.9358   -1.0052   -6.1889 H       1  LIG1          0.12
     70 H          -1.9546   -0.6994   -2.3994 H       1  LIG1          0.12
     71 H          -1.3038   -1.4243    2.0378 H       1  LIG1       0.10999999999999999
     72 H          -1.8951   -1.2720   -0.2553 H       1  LIG1          0.12
     73 H           0.8869    0.2460   -1.9665 H       1  LIG1          0.13
     74 H          -1.2626   -0.4668   -8.3346 H       1  LIG1       0.42000000000000004
@<TRIPOS>BOND
     1    74    28    1
     2    28    21    1
     3    21    69    1
     4    21    17    1
     5    21    13    1
     6    66    17    1
     7    65    17    1
     8    57    13    1
     9    58    13    1
    10    17    20    1
    11    13    15    1
    12    38     4    1
    13    50     9    1
    14    20     9    2
    15    20    26    1
    16    15    62    1
    17    15    61    1
    18    15    26    1
    19     4    39    1
    20     4    26    1
    21     4    40    1
    22     9    10    1
    23    26    25    1
    24    10    52    1
    25    10    51    1
    26    10    22    1
    27    70    22    1
    28    25    73    1
    29    25    22    1
    30    25    14    1
    31    22    24    1
    32    60    14    1
    33    59    14    1
    34    14    16    1
    35    43     5    1
    36    24    72    1
    37    24    12    1
    38    24    27    1
    39    55    12    1
    40    56    12    1
    41    16    63    1
    42    16    27    1
    43    16    64    1
    44    12    11    1
    45     5    27    1
    46     5    41    1
    47     5    42    1
    48    27    23    1
    49    11    23    1
    50    11    53    1
    51    11    54    1
    52    23    71    1
    53    23    19    1
    54    36     3    1
    55    68    19    1
    56    19     3    1
    57    19     8    1
    58     3    35    1
    59     3    37    1
    60    49     8    1
    61     8    48    1
    62     8     6    1
    63    47     7    1
    64    46     7    1
    65     7     6    1
    66     7    18    1
    67    32     2    1
    68     6    44    1
    69     6    45    1
    70    29     1    1
    71    33     2    1
    72     2    18    1
    73     2    34    1
    74    18     1    1
    75    18    67    1
    76     1    30    1
    77     1    31    1
