@<TRIPOS>MOLECULE
HWDMHJDYMFRXOX-XVFCMESISA-M	6044647	-1401.6832141580992
 30 32 0 0 0
SMALL
MULLIKEN NwChem

@<TRIPOS>ATOM
      1 C          -2.2034   -3.0027   -1.1966 C.ar    1  LIG1       -0.29000000000000004
      2 C          -2.0091   -1.6906   -0.9863 C.ar    1  LIG1       0.08999999999999986
      3 C           2.1669   -0.1964   -1.3615 C.3     1  LIG1       -0.07000000000000028
      4 C           1.3416    0.9344   -0.7499 C.3     1  LIG1       0.07000000000000028
      5 C          -1.2996   -3.9909   -0.5622 C.ar    1  LIG1       0.5199999999999996
      6 C           1.3466    1.0646    0.7870 C.3     1  LIG1       0.08000000000000007
      7 C          -0.0946    0.6613    1.2409 C.3     1  LIG1       0.08000000000000007
      8 C          -0.8022    0.1691   -0.0341 C.3     1  LIG1       0.21999999999999975
      9 C          -0.0234   -2.2156    0.3634 C.ar    1  LIG1       0.7000000000000002
     10 N          -0.2436   -3.5094    0.1829 N.ar    1  LIG1      -0.6500000000000004
     11 N          -0.9621   -1.2421   -0.1946 N.ar    1  LIG1      -0.4800000000000004
     12 O           1.9658   -0.2309   -2.7709 O.3     1  LIG1      -0.6600000000000001
     13 O          -1.5094   -5.2008   -0.7154 O.2     1  LIG1      -0.6500000000000004
     14 O           0.9453   -1.7168    0.9823 O.2     1  LIG1      -0.6400000000000006
     15 O          -0.3557    3.5148   -0.2697 O.3     1  LIG1      -0.6999999999999993
     16 O           0.0222    4.3796    2.1269 O.2     1  LIG1      -0.5700000000000003
     17 O          -0.0618    0.8220   -1.1169 O.3     1  LIG1      -0.5399999999999991
     18 O           1.5378    2.4525    1.1623 O.3     1  LIG1      -0.5700000000000003
     19 O          -0.7579    1.8848    1.6712 O.3     1  LIG1      -0.5800000000000001
     20 P           0.0950    3.2026    1.2490 P.3     1  LIG1       1.2300000000000004
     21 H          -3.0262   -3.3646   -1.8030 H       1  LIG1       0.15000000000000002
     22 H          -2.6442   -0.9147   -1.4085 H       1  LIG1       0.19999999999999996
     23 H           3.2283    0.0270   -1.1989 H       1  LIG1       0.17000000000000004
     24 H           1.9433   -1.1501   -0.8778 H       1  LIG1       0.17000000000000004
     25 H           1.6832    1.8736   -1.1955 H       1  LIG1       0.18999999999999995
     26 H           2.1158    0.4736    1.2767 H       1  LIG1       0.20999999999999996
     27 H          -0.1198   -0.0416    2.0651 H       1  LIG1       0.21999999999999997
     28 H          -1.7943    0.6237   -0.0818 H       1  LIG1       0.20999999999999996
     29 H           1.0167   -0.4025   -2.8869 H       1  LIG1       0.42000000000000004
     30 H          -0.4208    2.6799   -0.7918 H       1  LIG1           0.47
@<TRIPOS>BOND
     1    29    12    1
     2    12     3    1
     3    21     1    1
     4    22     2    1
     5     3    23    1
     6     3    24    1
     7     3     4    1
     8     1     2   ar
     9     1     5   ar
    10    25     4    1
    11    17     4    1
    12    17     8    1
    13     2    11   ar
    14    30    15    1
    15     4     6    1
    16    13     5    2
    17     5    10   ar
    18    15    20    1
    19    11     8    1
    20    11     9   ar
    21    28     8    1
    22     8     7    1
    23    10     9   ar
    24     9    14    2
    25     6    18    1
    26     6     7    1
    27     6    26    1
    28    18    20    1
    29     7    19    1
    30     7    27    1
    31    20    19    1
    32    20    16    2
