@<TRIPOS>MOLECULE
HWXBTNAVRSUOJR-GSVOUGTGSA-L	6044648	-570.4778187815316
 16 15 0 0 0
SMALL
MULLIKEN NwChem

@<TRIPOS>ATOM
      1 C          -0.3185   -0.6131    0.4697 C.3     1  LIG1            -0.25
      2 C           1.1972   -0.4223    0.3511 C.3     1  LIG1       -0.3600000000000003
      3 C          -1.1960    0.2617   -0.4500 C.3     1  LIG1       0.05999999999999961
      4 C           2.0851   -1.5042    1.0738 C.2     1  LIG1       0.5099999999999998
      5 C          -1.3329    1.7589    0.0129 C.2     1  LIG1       0.5099999999999998
      6 O          -2.5193   -0.2870   -0.5442 O.3     1  LIG1      -0.7300000000000004
      7 O           3.3043   -1.1960    1.1948 O.co2   1  LIG1      -0.6999999999999993
      8 O           1.5175   -2.5750    1.4270 O.co2   1  LIG1      -0.6799999999999997
      9 O          -0.3132    2.4799    0.0078 O.co2   1  LIG1      -0.6500000000000004
     10 O          -2.5242    2.0834    0.3430 O.co2   1  LIG1      -0.6799999999999997
     11 H          -0.6369   -0.4579    1.5119 H       1  LIG1       0.10999999999999999
     12 H          -0.5446   -1.6640    0.2505 H       1  LIG1          0.12
     13 H           1.4781   -0.4474   -0.7174 H       1  LIG1          0.13
     14 H           1.4868    0.5773    0.6919 H       1  LIG1          0.12
     15 H          -0.7367    0.2714   -1.4568 H       1  LIG1       0.10999999999999999
     16 H          -3.0158    0.4887   -0.1678 H       1  LIG1           0.39
@<TRIPOS>BOND
     1    15     3    1
     2    13     2    1
     3     6     3    1
     4     6    16    1
     5     3     5    1
     6     3     1    1
     7     9     5   ar
     8     5    10   ar
     9    12     1    1
    10     2     1    1
    11     2    14    1
    12     2     4    1
    13     1    11    1
    14     4     7   ar
    15     4     8   ar
