@<TRIPOS>MOLECULE
HWXBTNAVRSUOJR-VKHMYHEASA-L	6044649	-570.4779478197242
 16 15 0 0 0
SMALL
MULLIKEN NwChem

@<TRIPOS>ATOM
      1 C           0.2672    0.8607    0.1264 C.3     1  LIG1      -0.2400000000000002
      2 C          -0.2741    1.1765   -1.2777 C.3     1  LIG1       -0.3600000000000003
      3 C          -0.3065   -0.4125    0.7705 C.3     1  LIG1       0.04999999999999982
      4 C           0.3707    0.4262   -2.5028 C.2     1  LIG1       0.5199999999999996
      5 C           0.2343   -0.6083    2.2353 C.2     1  LIG1       0.5099999999999998
      6 O          -1.7386   -0.3761    0.8331 O.3     1  LIG1      -0.7200000000000006
      7 O          -0.1709    0.6902   -3.6147 O.co2   1  LIG1      -0.6999999999999993
      8 O           1.3570   -0.3218   -2.2727 O.co2   1  LIG1      -0.6799999999999997
      9 O          -0.6833   -0.6130    3.1258 O.co2   1  LIG1      -0.6799999999999997
     10 O           1.4673   -0.7243    2.4049 O.co2   1  LIG1      -0.6600000000000001
     11 H           0.0418    1.7000    0.8083 H       1  LIG1       0.10999999999999999
     12 H           1.3551    0.7439    0.0837 H       1  LIG1       0.10999999999999999
     13 H          -1.3580    1.0019   -1.3011 H       1  LIG1          0.12
     14 H          -0.1500    2.2538   -1.4880 H       1  LIG1          0.12
     15 H           0.0152   -1.2657    0.1530 H       1  LIG1       0.09999999999999998
     16 H          -1.8344   -0.4247    1.8210 H       1  LIG1            0.4
@<TRIPOS>BOND
     1     7     4   ar
     2     4     8   ar
     3     4     2    1
     4    14     2    1
     5    13     2    1
     6     2     1    1
     7    12     1    1
     8     1     3    1
     9     1    11    1
    10    15     3    1
    11     3     6    1
    12     3     5    1
    13     6    16    1
    14     5    10   ar
    15     5     9   ar
