@<TRIPOS>MOLECULE
HXXFSFRBOHSIMQ-VFUOTHLCSA-L	6044652	-1253.7988157579568
 27 27 0 0 0
SMALL
MULLIKEN NwChem

@<TRIPOS>ATOM
      1 C           1.2051    2.6047   -0.7972 C.3     1  LIG1       0.009999999999999787
      2 C          -0.2299    2.0731   -0.5541 C.3     1  LIG1       0.08999999999999986
      3 C          -0.8604    2.4837    0.7891 C.3     1  LIG1       0.08000000000000007
      4 C          -0.2302    1.7206    1.9853 C.3     1  LIG1       0.11000000000000032
      5 C          -0.2820    0.2032    1.6896 C.3     1  LIG1       0.08000000000000007
      6 C           0.2788   -0.1725    0.3061 C.3     1  LIG1       0.34999999999999964
      7 O           2.1506    2.2443    0.1102 O.3     1  LIG1      -0.7699999999999996
      8 O          -2.2850    2.2938    0.7568 O.3     1  LIG1      -0.7100000000000009
      9 O           1.0503    2.1541    2.3042 O.3     1  LIG1      -0.7599999999999998
     10 O          -1.6572   -0.2431    1.7452 O.3     1  LIG1      -0.6899999999999995
     11 O          -0.3915   -1.5269   -2.4602 O.3     1  LIG1        -0.75
     12 O           1.8963   -2.1670   -1.3872 O.2     1  LIG1      -0.6999999999999993
     13 O          -0.2269   -3.7308   -1.1578 O.3     1  LIG1      -0.6799999999999997
     14 O          -0.3445    0.6409   -0.7149 O.3     1  LIG1      -0.5600000000000005
     15 O          -0.1374   -1.4918    0.0803 O.3     1  LIG1      -0.6300000000000008
     16 P           0.4135   -2.3818   -1.2875 P.3     1  LIG1       1.0600000000000005
     17 H           1.0546    3.7257   -0.9042 H       1  LIG1       0.050000000000000044
     18 H           1.4588    2.2654   -1.8317 H       1  LIG1       0.06999999999999995
     19 H          -0.8824    2.4710   -1.3463 H       1  LIG1          0.13
     20 H          -0.6858    3.5566    0.9441 H       1  LIG1          0.13
     21 H          -0.9051    1.8906    2.8444 H       1  LIG1       0.10999999999999999
     22 H           0.3129   -0.3210    2.4521 H       1  LIG1          0.13
     23 H           1.3631   -0.0510    0.2497 H       1  LIG1          0.14
     24 H          -0.3422   -0.5876   -2.1879 H       1  LIG1       0.43999999999999995
     25 H          -2.3890    1.3308    0.9001 H       1  LIG1       0.42000000000000004
     26 H           1.6044    2.2222    1.3464 H       1  LIG1       0.43000000000000005
     27 H          -1.6474   -1.0136    1.1369 H       1  LIG1       0.43000000000000005
@<TRIPOS>BOND
     1    11    24    1
     2    11    16    1
     3    18     1    1
     4    12    16    2
     5    19     2    1
     6    16    13    1
     7    16    15    1
     8    17     1    1
     9     1     2    1
    10     1     7    1
    11    14     2    1
    12    14     6    1
    13     2     3    1
    14    15     6    1
    15    23     6    1
    16     6     5    1
    17     8     3    1
    18     8    25    1
    19     3    20    1
    20     3     4    1
    21    27    10    1
    22    26     9    1
    23     5    10    1
    24     5     4    1
    25     5    22    1
    26     4     9    1
    27     4    21    1
