@<TRIPOS>MOLECULE
HXXFSFRBOHSIMQ-RWOPYEJCSA-L	11095376	-1253.797382721268
 27 27 0 0 0
SMALL
MULLIKEN NwChem

@<TRIPOS>ATOM
      1 C          -2.7988    1.2276   -0.7167 C.3     1  LIG1       -0.04999999999999982
      2 C          -1.9858    0.0363   -1.2375 C.3     1  LIG1       0.11000000000000032
      3 C          -2.0857   -1.2165   -0.3662 C.3     1  LIG1       0.09999999999999964
      4 C          -0.8974   -2.1315   -0.6391 C.3     1  LIG1       0.08999999999999986
      5 C           0.4320   -1.4089   -0.1930 C.3     1  LIG1       0.16000000000000014
      6 C           0.2249    0.1267   -0.2494 C.3     1  LIG1       0.3200000000000003
      7 O          -2.5172    2.3862   -1.4950 O.3     1  LIG1      -0.6799999999999997
      8 O          -3.3245   -1.9021   -0.6138 O.3     1  LIG1      -0.7100000000000009
      9 O          -1.0253   -3.3057    0.1448 O.3     1  LIG1      -0.7300000000000004
     10 O           0.7240   -1.8488    1.0742 O.3     1  LIG1      -0.7899999999999991
     11 O           3.4153    2.1208    0.4846 O.2     1  LIG1      -0.6899999999999995
     12 O           1.1785    1.9767    1.8793 O.3     1  LIG1      -0.7200000000000006
     13 O           2.7229   -0.0957    1.5673 O.3     1  LIG1      -0.7699999999999996
     14 O          -0.6288    0.4629   -1.3978 O.3     1  LIG1      -0.5700000000000003
     15 O           1.4039    0.8236   -0.4337 O.3     1  LIG1      -0.6199999999999992
     16 P           2.2242    1.3534    0.9847 P.3     1  LIG1       1.0299999999999994
     17 H          -3.8741    1.0188   -0.7883 H       1  LIG1       0.15000000000000002
     18 H          -2.5499    1.3976    0.3442 H       1  LIG1          0.14
     19 H          -2.3472   -0.2190   -2.2446 H       1  LIG1          0.14
     20 H          -2.0342   -0.9425    0.6994 H       1  LIG1          0.12
     21 H          -0.8956   -2.3924   -1.7101 H       1  LIG1       0.10999999999999999
     22 H           1.2195   -1.6324   -0.9505 H       1  LIG1       0.06000000000000005
     23 H          -0.2703    0.4583    0.6742 H       1  LIG1          0.13
     24 H          -1.5445    2.3328   -1.5915 H       1  LIG1       0.41000000000000003
     25 H          -3.1137   -2.7873   -0.2577 H       1  LIG1       0.42000000000000004
     26 H          -0.3256   -3.0204    0.8586 H       1  LIG1           0.4
     27 H           1.9826   -0.7765    1.5124 H       1  LIG1       0.43000000000000005
@<TRIPOS>BOND
     1    19     2    1
     2    21     4    1
     3    24     7    1
     4     7     1    1
     5    14     2    1
     6    14     6    1
     7     2     1    1
     8     2     3    1
     9    22     5    1
    10    17     1    1
    11     1    18    1
    12     4     3    1
    13     4     5    1
    14     4     9    1
    15     8     3    1
    16     8    25    1
    17    15     6    1
    18    15    16    1
    19     3    20    1
    20     6     5    1
    21     6    23    1
    22     5    10    1
    23     9    26    1
    24    11    16    2
    25    16    13    1
    26    16    12    1
    27    27    13    1
