@<TRIPOS>MOLECULE
HXXFSFRBOHSIMQ-FPRJBGLDSA-L	6044650	-1253.7876021190527
 27 27 0 0 0
SMALL
MULLIKEN NwChem

@<TRIPOS>ATOM
      1 C           0.8219   -1.5450    1.6304 C.3     1  LIG1       -0.1299999999999999
      2 C          -0.6824   -1.3378    1.2530 C.3     1  LIG1       0.08999999999999986
      3 C          -1.2625   -2.2935    0.1690 C.3     1  LIG1       0.07000000000000028
      4 C          -0.9663   -1.8619   -1.2943 C.3     1  LIG1       0.08999999999999986
      5 C          -0.9135   -0.3456   -1.5153 C.3     1  LIG1       0.1299999999999999
      6 C          -0.2351    0.3976   -0.3543 C.3     1  LIG1       0.33000000000000007
      7 O           1.5372   -2.4773    0.7757 O.3     1  LIG1      -0.6899999999999995
      8 O          -0.8625   -3.6675    0.3654 O.3     1  LIG1      -0.6999999999999993
      9 O           0.2963   -2.4126   -1.7261 O.3     1  LIG1      -0.6799999999999997
     10 O          -2.2378    0.1580   -1.6732 O.3     1  LIG1      -0.6999999999999993
     11 O           1.6764    3.4039   -0.8406 O.2     1  LIG1      -0.7400000000000002
     12 O           0.2453    3.5821    1.3353 O.3     1  LIG1      -0.7400000000000002
     13 O           1.8497    1.5535    0.9780 O.3     1  LIG1      -0.7400000000000002
     14 O          -0.9639   -0.0206    0.8791 O.3     1  LIG1      -0.5600000000000005
     15 O          -0.3646    1.7158   -0.5033 O.3     1  LIG1      -0.6999999999999993
     16 P           1.0578    2.7294    0.3753 P.3     1  LIG1       0.9100000000000001
     17 H           0.8960   -1.9935    2.6285 H       1  LIG1       0.17000000000000004
     18 H           1.3057   -0.5547    1.6355 H       1  LIG1       0.18999999999999995
     19 H          -1.2664   -1.5216    2.1684 H       1  LIG1       0.16000000000000003
     20 H          -2.3511   -2.2568    0.2837 H       1  LIG1       0.15000000000000002
     21 H          -1.7587   -2.2845   -1.9360 H       1  LIG1       0.15000000000000002
     22 H          -0.3207   -0.1674   -2.4285 H       1  LIG1          0.13
     23 H           0.8138    0.0867   -0.2412 H       1  LIG1          0.13
     24 H           0.2474   -3.3348   -1.4153 H       1  LIG1       0.42000000000000004
     25 H           0.0836   -3.5791    0.6246 H       1  LIG1       0.43000000000000005
     26 H           1.4948   -2.1033   -0.1275 H       1  LIG1       0.43000000000000005
     27 H          -2.1300    1.0576   -1.2889 H       1  LIG1       0.41000000000000003
@<TRIPOS>BOND
     1    22     5    1
     2    21     4    1
     3     9    24    1
     4     9     4    1
     5    10     5    1
     6    10    27    1
     7     5     4    1
     8     5     6    1
     9     4     3    1
    10    11    16    2
    11    15     6    1
    12    15    16    1
    13     6    23    1
    14     6    14    1
    15    26     7    1
    16     3    20    1
    17     3     8    1
    18     3     2    1
    19     8    25    1
    20    16    13    1
    21    16    12    1
    22     7     1    1
    23    14     2    1
    24     2     1    1
    25     2    19    1
    26     1    18    1
    27     1    17    1
