@<TRIPOS>MOLECULE
HYHSBSXUHZOYLX-WDSKDSINSA-M	6044653	-1533.5175056163885
 37 36 0 0 0
SMALL
MULLIKEN NwChem

@<TRIPOS>ATOM
      1 C           0.9815    2.9999    1.2189 C.3     1  LIG1      -0.2400000000000002
      2 C           0.7798    2.1610   -0.0580 C.3     1  LIG1       -0.33999999999999986
      3 C          -2.5768   -1.6471   -2.5176 C.3     1  LIG1       -0.23000000000000043
      4 C          -1.1147   -0.7589    0.2872 C.3     1  LIG1       -0.41999999999999993
      5 CA          0.7242    2.1548    2.4898 C.3     1  LIG1       -0.04999999999999982
      6 C          -0.2091   -0.7651   -0.9618 C.3     1  LIG1       -0.07000000000000028
      7 C           1.6589    0.9117    0.0301 C.3     1  LIG1       0.09999999999999964
      8 C          -2.5614   -2.6017   -3.7032 C.2     1  LIG1       0.5800000000000001
      9 C          -0.8046   -0.0744   -2.2081 C.2     1  LIG1       0.5099999999999998
     10 C           1.1320    2.9195    3.7339 C.2     1  LIG1       0.5800000000000001
     11 N          -0.6605    1.6901    2.5703 N.3     1  LIG1      -0.7800000000000002
     12 N          -1.8509   -0.4417   -2.8409 N.2     1  LIG1      -0.4800000000000004
     13 N           1.1160   -0.3032   -0.4718 N.4     1  LIG1      -0.15000000000000036
     14 N           1.8541   -1.7677    0.4702 N.2     1  LIG1       0.1299999999999999
     15 O           1.9946    0.3046   -1.4188 O.3     1  LIG1      -0.4900000000000002
     16 O          -3.5304   -3.1142   -4.2232 O.2     1  LIG1      -0.5099999999999998
     17 O          -1.2954   -2.8733   -4.1052 O.3     1  LIG1      -0.5700000000000003
     18 O          -0.1605    1.0069   -2.6784 O.2     1  LIG1      -0.6400000000000006
     19 OXT         0.4115    3.1918    4.6775 O.2     1  LIG1      -0.5199999999999996
     20 O           2.4337    3.3166    3.7104 O.3     1  LIG1      -0.5899999999999999
     21 O           1.9171   -2.7206   -0.2120 O.2     1  LIG1      -0.1999999999999993
     22 S          -0.2778   -1.6570    1.6672 S.3     1  LIG1      -0.379999999999999
     23 H           0.3037    3.8645    1.2158 H       1  LIG1          0.14
     24 H           2.0135    3.3658    1.2476 H       1  LIG1          0.14
     25 H          -0.2909    1.9735   -0.2028 H       1  LIG1       0.15000000000000002
     26 H           1.1086    2.7606   -0.9167 H       1  LIG1       0.16000000000000003
     27 H          -2.1989   -2.2355   -1.6664 H       1  LIG1       0.19999999999999996
     28 H          -3.6294   -1.4191   -2.3175 H       1  LIG1       0.18999999999999995
     29 H          -1.3347    0.2716    0.5789 H       1  LIG1       0.19999999999999996
     30 H          -2.0618   -1.2521    0.0609 H       1  LIG1       0.19999999999999996
     31 HA          1.4040    1.2932    2.3961 H       1  LIG1       0.17000000000000004
     32 H          -0.0239   -1.8085   -1.2565 H       1  LIG1       0.20999999999999996
     33 H1         -1.1104    2.1214    3.3770 H       1  LIG1       0.31999999999999995
     34 H2         -0.6552    0.6788    2.7205 H       1  LIG1       0.33999999999999997
     35 H          -1.3842   -3.4892   -4.8565 H       1  LIG1       0.44999999999999996
     36 H           0.7717    0.9573   -2.3259 H       1  LIG1       0.45999999999999996
     37 H           2.5680    3.8022    4.5452 H       1  LIG1       0.43999999999999995
@<TRIPOS>BOND
     1    35    17    1
     2    16     8    2
     3    17     8    1
     4     8     3    1
     5    12     3    1
     6    12     9    2
     7    18    36    1
     8    18     9    1
     9     3    28    1
    10     3    27    1
    11     9     6    1
    12    15    13    1
    13    15     7    1
    14    32     6    1
    15     6    13    1
    16     6     4    1
    17    26     2    1
    18    13     7    1
    19    21    14    2
    20    25     2    1
    21     2     7    1
    22     2     1    1
    23    30     4    1
    24     4    29    1
    25     4    22    1
    26    23     1    1
    27     1    24    1
    28     1     5    1
    29    31     5    1
    30     5    11    1
    31     5    10    1
    32    11    34    1
    33    11    33    1
    34    20    10    1
    35    20    37    1
    36    10    19    2
