@<TRIPOS>MOLECULE
HZAXFHJVJLSVMW-UHFFFAOYSA-O	6044654	-210.77053567463875
 12 11 0 0 0
SMALL
MULLIKEN NwChem

@<TRIPOS>ATOM
      1 CA          0.1200    1.0062    0.0992 C.3     1  GLY1      -0.17999999999999972
      2 C          -0.1110    0.0157   -1.0376 C.3     1  GLY1       -0.040000000000000036
      3 N          -0.2987    0.3107    1.3866 N.4     1  GLY1         -0.71
      4 O           0.4885   -1.1882   -0.5760 O.3     1  GLY1      -0.6600000000000001
      5 HA1        -0.4508    1.9299   -0.0049 H       1  GLY1       0.22999999999999998
      6 HA2         1.1831    1.2291    0.2093 H       1  GLY1       0.22999999999999998
      7 H1         -1.1862   -0.1092   -1.2362 H       1  GLY1       0.17000000000000004
      8 H2          0.3640    0.4089   -1.9453 H       1  GLY1       0.18000000000000005
      9 H1          0.0658    0.7704    2.2280 H       1  GLY1      0.44999999999999996
     10 H2         -1.3196    0.2457    1.4755 H       1  GLY1      0.43999999999999995
     11 H3          0.0733   -0.6544    1.3243 H       1  GLY1      0.43999999999999995
     12 H           0.3909   -1.8950   -1.2331 H       1  GLY1       0.44999999999999996
@<TRIPOS>BOND
     1     8     2    1
     2     7     2    1
     3    12     4    1
     4     2     4    1
     5     2     1    1
     6     5     1    1
     7     1     6    1
     8     1     3    1
     9    11     3    1
    10     3    10    1
    11     3     9    1
