@<TRIPOS>MOLECULE
HZSAJDVWZRBGIF-UHFFFAOYSA-M	6044656	-1726.283899297578
 38 40 0 0 0
SMALL
MULLIKEN NwChem

@<TRIPOS>ATOM
      1 C          -0.3658    1.6749   -2.3602 C.3     1  LIG1      -0.5499999999999998
      2 C           4.5560   -4.6957   -0.4057 C.3     1  LIG1       -0.5300000000000002
      3 C          -1.3736    3.6760   -0.1788 C.3     1  LIG1       -0.34999999999999964
      4 C          -2.8097    3.1489   -0.4711 C.3     1  LIG1       -0.03000000000000025
      5 C           2.8019   -1.4536   -0.5283 C.3     1  LIG1       -0.040000000000000036
      6 C           0.3808   -0.7509   -0.8035 C.3     1  LIG1       -0.23000000000000043
      7 C           1.0425    0.8424    0.9522 C.3     1  LIG1         -0.25
      8 C           0.0252    1.6676   -0.9139 C.2     1  LIG1       0.3899999999999997
      9 C           3.5088   -3.6196   -0.5006 C.2     1  LIG1          0.54
     10 C           1.4840   -1.7666   -0.6683 C.2     1  LIG1       0.08999999999999986
     11 C          -0.3670    2.5776    0.0192 C.2     1  LIG1       -0.23000000000000043
     12 C           1.1038   -3.1775   -0.7522 C.2     1  LIG1       0.45999999999999996
     13 N          -0.0402   -3.7413   -0.9122 N.pl3   1  LIG1        -0.75
     14 N           3.8438   -2.3636   -0.4394 N.2     1  LIG1        -0.54
     15 N           2.2187   -4.0338   -0.6482 N.pl3   1  LIG1      -0.6399999999999997
     16 N           0.7735    0.6110   -0.4009 N.pl3   1  LIG1      -0.41999999999999993
     17 O          -2.3219    0.3310    0.2665 O.2     1  LIG1      -0.7300000000000004
     18 O          -1.7138    1.8519    2.2863 O.3     1  LIG1      -0.7400000000000002
     19 O          -4.0264    0.7261    2.2531 O.3     1  LIG1      -0.6899999999999995
     20 O          -3.4853    2.6231    0.6365 O.3     1  LIG1      -0.5999999999999996
     21 P          -2.9207    1.1938    1.3638 P.3     1  LIG1       1.1099999999999994
     22 S           0.0443    2.0170    1.6404 S.3     1  LIG1      0.5099999999999998
     23 H          -0.6232    2.6881   -2.6811 H       1  LIG1       0.18999999999999995
     24 H          -1.2504    1.0449   -2.5171 H       1  LIG1       0.18999999999999995
     25 H           0.4461    1.3105   -3.0007 H       1  LIG1       0.18000000000000005
     26 H           5.5363   -4.2272   -0.3084 H       1  LIG1       0.18999999999999995
     27 H           4.3795   -5.3401    0.4650 H       1  LIG1       0.19999999999999996
     28 H           4.5492   -5.3344   -1.2982 H       1  LIG1       0.19999999999999996
     29 H          -1.4216    4.3176    0.7070 H       1  LIG1       0.16000000000000003
     30 H          -1.0670    4.3128   -1.0228 H       1  LIG1       0.17000000000000004
     31 H          -3.4050    4.0043   -0.8268 H       1  LIG1          0.14
     32 H          -2.7581    2.4106   -1.2835 H       1  LIG1          0.14
     33 H           3.0979   -0.4102   -0.4724 H       1  LIG1       0.17000000000000004
     34 H          -0.5132   -1.0136   -0.2185 H       1  LIG1       0.18999999999999995
     35 H           0.0611   -0.7318   -1.8519 H       1  LIG1       0.20999999999999996
     36 H           1.4711    0.0435    1.5423 H       1  LIG1       0.19999999999999996
     37 H          -0.7882   -3.0485   -0.9445 H       1  LIG1       0.31999999999999995
     38 H           1.9911   -5.0210   -0.6883 H       1  LIG1           0.37
@<TRIPOS>BOND
     1    25     1    1
     2    23     1    1
     3    24     1    1
     4     1     8    1
     5    35     6    1
     6    28     2    1
     7    32     4    1
     8    30     3    1
     9    37    13    1
    10     8    16    1
    11     8    11    2
    12    13    12    1
    13    31     4    1
    14     6    10    1
    15     6    16    1
    16     6    34    1
    17    12    10    2
    18    12    15    1
    19    38    15    1
    20    10     5    1
    21    15     9    1
    22     5    33    1
    23     5    14    1
    24     9    14    2
    25     9     2    1
    26     4     3    1
    27     4    20    1
    28     2    26    1
    29     2    27    1
    30    16     7    1
    31     3    11    1
    32     3    29    1
    33    11    22    1
    34    17    21    2
    35    20    21    1
    36     7    36    1
    37     7    22    1
    38    21    19    1
    39    21    18    1
    40    22    18    1
