@<TRIPOS>MOLECULE
IADQVXRMSNIUEL-UHFFFAOYSA-N	6044657	-535.2174467758632
 19 19 0 0 0
SMALL
MULLIKEN NwChem

@<TRIPOS>ATOM
      1 C          -1.5720    0.6028    0.2261 C.ar    1  LIG1      -0.21999999999999975
      2 C          -0.9332    1.8473    0.2123 C.ar    1  LIG1      -0.21999999999999975
      3 C          -1.4715   -1.9432    0.2558 C.3     1  LIG1       -0.41000000000000014
      4 C          -1.1083   -2.6539   -1.0360 C.2     1  LIG1       0.2599999999999998
      5 C           0.5799   -0.4758    0.2639 C.ar    1  LIG1      -0.2599999999999998
      6 C          -0.8216   -0.5707    0.2607 C.ar    1  LIG1      0.1200000000000001
      7 C           0.4562    1.9412    0.2236 C.ar    1  LIG1       0.2999999999999998
      8 C           1.2243    0.7571    0.2497 C.ar    1  LIG1       0.3099999999999996
      9 O          -0.3123   -3.5641   -1.1092 O.2     1  LIG1      -0.4499999999999993
     10 O           1.1386    3.1239    0.2107 O.3     1  LIG1      -0.6799999999999997
     11 O           2.5817    0.8989    0.2562 O.3     1  LIG1      -0.6799999999999997
     12 H          -2.6575    0.5577    0.2196 H       1  LIG1       0.15000000000000002
     13 H          -1.5243    2.7612    0.1932 H       1  LIG1       0.17000000000000004
     14 H          -1.1225   -2.5579    1.0925 H       1  LIG1       0.18000000000000005
     15 H          -2.5620   -1.8418    0.3200 H       1  LIG1       0.18999999999999995
     16 H          -1.5925   -2.2378   -1.9481 H       1  LIG1          0.14
     17 H           1.1764   -1.3870    0.2691 H       1  LIG1       0.17000000000000004
     18 H           0.4978    3.8511    0.1867 H       1  LIG1       0.44999999999999996
     19 H           2.9850    0.0171    0.2677 H       1  LIG1       0.45999999999999996
@<TRIPOS>BOND
     1    16     4    1
     2     9     4    2
     3     4     3    1
     4    18    10    1
     5    13     2    1
     6    10     7    1
     7     2     7   ar
     8     2     1   ar
     9    12     1    1
    10     7     8   ar
    11     1     6   ar
    12     8    11    1
    13     8     5   ar
    14     3     6    1
    15     3    15    1
    16     3    14    1
    17    11    19    1
    18     6     5   ar
    19     5    17    1
