@<TRIPOS>MOLECULE
IAJILQKETJEXLJ-QTBDOELSSA-M	6044658	-760.6157519088342
 22 21 0 0 0
SMALL
MULLIKEN NwChem

@<TRIPOS>ATOM
      1 C          -2.2418   -0.0635    1.9271 C.2     1  LIG1       0.2599999999999998
      2 C          -1.4991   -0.1547    0.6156 C.3     1  LIG1           0.0
      3 C          -0.0524   -0.6120    0.8911 C.3     1  LIG1       0.11000000000000032
      4 C           0.8096   -0.7575   -0.3864 C.3     1  LIG1       0.09999999999999964
      5 C           0.6580    0.4096   -1.3983 C.3     1  LIG1           0.0
      6 C           1.1456    1.7087   -0.6796 C.2     1  LIG1       0.5300000000000002
      7 O          -3.2807   -0.6233    2.2014 O.2     1  LIG1      -0.4499999999999993
      8 O          -2.1768   -1.0790   -0.2388 O.3     1  LIG1      -0.6699999999999999
      9 O          -0.0933   -1.8421    1.6234 O.3     1  LIG1      -0.6799999999999997
     10 O           2.1747   -0.9105   -0.0203 O.3     1  LIG1      -0.6999999999999993
     11 O           1.4531    0.1564   -2.5443 O.3     1  LIG1      -0.6899999999999995
     12 O           2.3930    1.8985   -0.8413 O.co2   1  LIG1      -0.6500000000000004
     13 O           0.3273    2.3368    0.0224 O.co2   1  LIG1      -0.6199999999999992
     14 H          -1.7306    0.6031    2.6590 H       1  LIG1          0.14
     15 H          -1.4512    0.8650    0.2005 H       1  LIG1       0.19999999999999996
     16 H           0.4334    0.1252    1.5356 H       1  LIG1       0.16000000000000003
     17 H           0.5120   -1.6914   -0.8881 H       1  LIG1          0.14
     18 H          -0.3883    0.5225   -1.7156 H       1  LIG1          0.14
     19 H          -1.7969   -0.9552   -1.1228 H       1  LIG1       0.43999999999999995
     20 H          -0.7260   -2.3989    1.1369 H       1  LIG1       0.42000000000000004
     21 H           2.5805   -0.0253   -0.1344 H       1  LIG1       0.41000000000000003
     22 H           2.2454    0.7014   -2.3306 H       1  LIG1            0.4
@<TRIPOS>BOND
     1    11    22    1
     2    11     5    1
     3    18     5    1
     4     5     6    1
     5     5     4    1
     6    19     8    1
     7    17     4    1
     8    12     6   ar
     9     6    13   ar
    10     4    10    1
    11     4     3    1
    12     8     2    1
    13    21    10    1
    14    15     2    1
    15     2     3    1
    16     2     1    1
    17     3    16    1
    18     3     9    1
    19    20     9    1
    20     1     7    2
    21     1    14    1
