@<TRIPOS>MOLECULE
IAJILQKETJEXLJ-RSJOWCBRSA-M	6044659	-760.6137716982396
 22 21 0 0 0
SMALL
MULLIKEN NwChem

@<TRIPOS>ATOM
      1 C          -1.1085    1.3251   -2.0055 C.2     1  LIG1       0.23000000000000043
      2 C          -1.3949    1.1454   -0.5402 C.3     1  LIG1       0.04999999999999982
      3 C          -0.0463    1.3530    0.2743 C.3     1  LIG1       0.09999999999999964
      4 C           0.4126    0.0448    0.9465 C.3     1  LIG1       0.13999999999999968
      5 C           1.0618   -0.9410   -0.0468 C.3     1  LIG1           0.0
      6 C           1.3930   -2.2472    0.7462 C.2     1  LIG1       0.5199999999999996
      7 O          -1.5629    2.2713   -2.6341 O.2     1  LIG1      -0.46000000000000085
      8 O          -2.3962    2.0729   -0.1352 O.3     1  LIG1      -0.6799999999999997
      9 O          -0.2268    2.3951    1.2170 O.3     1  LIG1      -0.6899999999999995
     10 O          -0.6945   -0.5511    1.6133 O.3     1  LIG1      -0.7100000000000009
     11 O           0.1537   -1.2696   -1.1048 O.3     1  LIG1      -0.6799999999999997
     12 O           0.3852   -3.0415    0.7488 O.co2   1  LIG1      -0.6600000000000001
     13 O           2.4845   -2.3419    1.3199 O.co2   1  LIG1      -0.6300000000000008
     14 H          -0.4395    0.5756   -2.4592 H       1  LIG1       0.18000000000000005
     15 H          -1.7459    0.1338   -0.3320 H       1  LIG1       0.18999999999999995
     16 H           0.7631    1.6708   -0.4036 H       1  LIG1       0.15000000000000002
     17 H           1.1853    0.3295    1.6790 H       1  LIG1          0.13
     18 H           1.9718   -0.4987   -0.4693 H       1  LIG1          0.14
     19 H          -2.4117    2.7388   -0.8529 H       1  LIG1       0.43000000000000005
     20 H          -1.1925    2.5351    1.2495 H       1  LIG1       0.43000000000000005
     21 H          -0.5959   -1.5226    1.4868 H       1  LIG1       0.41000000000000003
     22 H          -0.1830   -2.1357   -0.7617 H       1  LIG1       0.41000000000000003
@<TRIPOS>BOND
     1     7     1    2
     2    14     1    1
     3     1     2    1
     4    11    22    1
     5    11     5    1
     6    19     8    1
     7     2    15    1
     8     2     8    1
     9     2     3    1
    10    18     5    1
    11    16     3    1
    12     5     6    1
    13     5     4    1
    14     3     4    1
    15     3     9    1
    16     6    12   ar
    17     6    13   ar
    18     4    10    1
    19     4    17    1
    20     9    20    1
    21    21    10    1
