@<TRIPOS>MOLECULE
IDBZKGQRLBFUFQ-MTKBYBFRSA-L	11095375	-3011.974505438529
 74 78 0 0 0
SMALL
MULLIKEN NwChem

@<TRIPOS>ATOM
      1 C           9.6259   -1.2986    0.0596 C.3     1  LIG1      -0.33000000000000007
      2 C           8.6946   -2.1383   -0.8314 C.3     1  LIG1      -0.2999999999999998
      3 C           8.3427    0.5308   -0.9177 C.3     1  LIG1       -0.11000000000000032
      4 C           2.7901    0.8081    0.7366 C.3     1  LIG1       -0.07000000000000028
      5 C          -3.6459    0.4729    0.0381 C.3     1  LIG1       -0.08999999999999986
      6 C         -10.2458   -1.9273    0.2049 C.ar    1  LIG1       0.16999999999999993
      7 C          -7.4123    0.6543   -1.8664 C.ar    1  LIG1       0.23000000000000043
      8 C           9.4747    0.1476   -0.3228 C.3     1  LIG1       0.11000000000000032
      9 C           4.2774    0.8860    0.9984 C.3     1  LIG1       0.1299999999999999
     10 C          -4.5910    1.2469    0.9640 C.3     1  LIG1       0.09999999999999964
     11 C           7.2347   -1.6765   -0.7297 C.3     1  LIG1       0.2599999999999998
     12 C          -9.0573   -0.6878   -1.8417 C.ar    1  LIG1       0.1900000000000004
     13 C           4.8891    2.2907    0.7610 C.3     1  LIG1       0.08000000000000007
     14 C          -5.1067    0.4334    2.1465 C.3     1  LIG1       0.08000000000000007
     15 C           6.3065    1.9910    0.1447 C.3     1  LIG1       0.09999999999999964
     16 C          -6.3277   -0.2777    1.5455 C.3     1  LIG1       0.07000000000000028
     17 C         -10.1520   -1.5440   -2.0683 C.ar    1  LIG1       0.4900000000000002
     18 C          10.5148    1.1907    0.0310 C.2     1  LIG1       0.4299999999999997
     19 C          -8.6588   -0.5434   -0.5074 C.ar    1  LIG1       0.5700000000000003
     20 C           6.3420    0.4415    0.1649 C.3     1  LIG1       0.28000000000000025
     21 C          -6.8745    0.8463    0.6344 C.3     1  LIG1       0.3099999999999996
     22 N         -10.6182   -1.7972   -3.3198 N.pl3   1  LIG1      -0.7800000000000002
     23 N           9.9348    2.3632    0.3274 N.am    1  LIG1        -0.79
     24 N         -10.7434   -2.1512   -1.0205 N.ar    1  LIG1      -0.5599999999999996
     25 N          -9.2175   -1.1490    0.5583 N.ar    1  LIG1      -0.5800000000000001
     26 N          -8.2656    0.0708   -2.6827 N.ar    1  LIG1      -0.5800000000000001
     27 N           7.1079   -0.1939   -0.9040 N.3     1  LIG1      -0.5099999999999998
     28 N          -7.5950    0.3225   -0.5392 N.ar    1  LIG1        -0.54
     29 O           6.7413   -2.1531    0.5138 O.3     1  LIG1      -0.6699999999999999
     30 O           4.9851    3.0475    1.9473 O.3     1  LIG1      -0.6999999999999993
     31 O          -5.5511    1.3275    3.1599 O.3     1  LIG1      -0.6799999999999997
     32 O           7.2720    2.6109    0.9505 O.3     1  LIG1      -0.7599999999999998
     33 O          -7.2221   -0.6797    2.5587 O.3     1  LIG1      -0.6999999999999993
     34 O          11.7301    0.8686    0.0766 O.2     1  LIG1      -0.6899999999999995
     35 O           0.5067   -2.2619    1.3153 O.3     1  LIG1      -0.6099999999999994
     36 O           0.6397   -0.6657   -0.7952 O.2     1  LIG1      -0.7300000000000004
     37 O          -0.8187    1.3971   -0.7287 O.3     1  LIG1      -0.7200000000000006
     38 O          -1.6388    2.4065    1.5137 O.2     1  LIG1      -0.6099999999999994
     39 O           2.2938   -0.4591    1.1824 O.3     1  LIG1      -0.5500000000000007
     40 O          -2.4699    0.0730    0.7220 O.3     1  LIG1      -0.5600000000000005
     41 O           4.9783    0.0162    0.0989 O.3     1  LIG1      -0.5600000000000005
     42 O          -5.7861    1.6009    0.1900 O.3     1  LIG1      -0.5500000000000007
     43 O          -0.1070    0.2882    1.4705 O.3     1  LIG1      -0.6600000000000001
     44 P           0.8229   -0.9563    0.6890 P.3     1  LIG1       1.1999999999999993
     45 P          -1.2367    1.1753    0.7905 P.3     1  LIG1       1.2100000000000009
     46 H          10.6780   -1.5859   -0.0604 H       1  LIG1          0.14
     47 H           9.3694   -1.4621    1.1166 H       1  LIG1       0.15000000000000002
     48 H           9.0179   -2.0406   -1.8758 H       1  LIG1       0.15000000000000002
     49 H           8.7174   -3.2033   -0.5686 H       1  LIG1       0.15000000000000002
     50 H           8.2539    1.5408   -1.2947 H       1  LIG1       0.16000000000000003
     51 H           2.5982    0.9361   -0.3355 H       1  LIG1       0.17000000000000004
     52 H           2.2874    1.6134    1.2892 H       1  LIG1       0.18000000000000005
     53 H          -3.4145    1.0909   -0.8383 H       1  LIG1       0.18000000000000005
     54 H          -4.1353   -0.4414   -0.3203 H       1  LIG1       0.18999999999999995
     55 H         -10.7477   -2.4481    1.0175 H       1  LIG1       0.17000000000000004
     56 H          -6.6192    1.3298   -2.1501 H       1  LIG1       0.20999999999999996
     57 H           4.4844    0.6025    2.0416 H       1  LIG1       0.15000000000000002
     58 H          -4.1140    2.1676    1.3035 H       1  LIG1       0.18999999999999995
     59 H           6.6436   -2.1317   -1.5401 H       1  LIG1          0.14
     60 H           4.2741    2.8389    0.0314 H       1  LIG1       0.15000000000000002
     61 H          -4.3423   -0.2603    2.5168 H       1  LIG1       0.17000000000000004
     62 H           6.3270    2.3461   -0.8961 H       1  LIG1       0.15000000000000002
     63 H          -6.0118   -1.1256    0.9204 H       1  LIG1       0.18000000000000005
     64 H           6.7541    0.1695    1.1528 H       1  LIG1          0.13
     65 H          -7.5797    1.4628    1.2086 H       1  LIG1       0.18000000000000005
     66 H         -11.5096   -2.2625   -3.4052 H       1  LIG1          0.37
     67 H         -10.2973   -1.2130   -4.0778 H       1  LIG1          0.38
     68 H          10.6744    3.0269    0.5760 H       1  LIG1          0.25
     69 H           5.8184   -1.8403    0.5818 H       1  LIG1       0.43000000000000005
     70 H           5.9575    3.1544    2.0555 H       1  LIG1       0.43000000000000005
     71 H          -6.2242    0.8326    3.6590 H       1  LIG1       0.43000000000000005
     72 H           8.2653    2.4921    0.6648 H       1  LIG1       0.43999999999999995
     73 H          -8.0483   -0.9661    2.1088 H       1  LIG1       0.43999999999999995
     74 H          -0.2162    0.5899   -0.9777 H       1  LIG1           0.48
@<TRIPOS>BOND
     1    67    22    1
     2    66    22    1
     3    22    17    1
     4    26     7   ar
     5    26    12   ar
     6    56     7    1
     7    17    12   ar
     8    17    24   ar
     9    48     2    1
    10     7    28   ar
    11    12    19   ar
    12    59    11    1
    13    50     3    1
    14    24     6   ar
    15    74    37    1
    16     3    27    1
    17     3     8    1
    18    27    11    1
    19    27    20    1
    20    62    15    1
    21    53     5    1
    22     2    11    1
    23     2    49    1
    24     2     1    1
    25    36    44    2
    26    11    29    1
    27    37    45    1
    28    28    19   ar
    29    28    21    1
    30    19    25   ar
    31    51     4    1
    32     8    18    1
    33     8     1    1
    34    54     5    1
    35    46     1    1
    36    18    34    2
    37    18    23   am
    38    60    13    1
    39     5    40    1
    40     5    10    1
    41     1    47    1
    42    41    20    1
    43    41     9    1
    44    15    20    1
    45    15    13    1
    46    15    32    1
    47    20    64    1
    48    42    21    1
    49    42    10    1
    50     6    25   ar
    51     6    55    1
    52    23    68    1
    53    29    69    1
    54    21    65    1
    55    21    16    1
    56    72    32    1
    57    44    39    1
    58    44    35    1
    59    44    43    1
    60    40    45    1
    61     4     9    1
    62     4    39    1
    63     4    52    1
    64    13     9    1
    65    13    30    1
    66    45    43    1
    67    45    38    2
    68    63    16    1
    69    10    58    1
    70    10    14    1
    71     9    57    1
    72    16    14    1
    73    16    33    1
    74    30    70    1
    75    73    33    1
    76    14    61    1
    77    14    31    1
    78    31    71    1
