@<TRIPOS>MOLECULE
IDGXIXSKISLYAC-ICUCBUPUSA-L	6044662	-1620.7234166353949
 80 84 0 0 0
SMALL
MULLIKEN NwChem

@<TRIPOS>ATOM
      1 C           2.5750   -5.5823   -1.5324 C.3     1  LIG1      -0.45999999999999996
      2 C           2.8876   -4.1206    0.4654 C.3     1  LIG1      -0.46999999999999975
      3 C          -0.8546    3.8581   -1.4329 C.3     1  LIG1         -0.5
      4 C          -2.3281   -0.9616   -2.3396 C.3     1  LIG1         -0.5
      5 C          -2.7982    1.5133   -1.1578 C.3     1  LIG1      -0.4800000000000004
      6 C          -0.7167    5.6257    1.2359 C.3     1  LIG1      -0.46999999999999975
      7 C           0.5986   -0.6015   -1.9289 C.3     1  LIG1        -0.25
      8 C           0.3209    0.8637   -2.1910 C.3     1  LIG1      -0.3200000000000003
      9 C          -1.5218    2.5130    1.4608 C.3     1  LIG1      -0.2999999999999998
     10 C          -1.7333    1.0416    1.0399 C.3     1  LIG1      -0.29000000000000004
     11 C           0.7448   -5.4528    0.1858 C.3     1  LIG1      -0.2699999999999996
     12 C          -2.5291   -1.6137    0.0345 C.3     1  LIG1      -0.3200000000000003
     13 C          -0.2212   -4.5775    0.9969 C.3     1  LIG1      -0.28000000000000025
     14 C          -1.7749   -2.5801    0.9499 C.3     1  LIG1      -0.28000000000000025
     15 C           1.2123   -3.4833   -1.3409 C.3     1  LIG1      -0.28000000000000025
     16 C           1.5129    3.3160   -0.8262 C.3     1  LIG1      -0.2999999999999998
     17 C          -0.2305   -1.3383   -1.1715 C.3     1  LIG1      0.17999999999999972
     18 C           0.2345   -2.6350   -0.5041 C.3     1  LIG1      -0.16000000000000014
     19 C           1.9353    4.6842   -0.2672 C.3     1  LIG1       0.11000000000000032
     20 C          -0.1870    1.4209   -0.8425 C.3     1  LIG1      -0.1200000000000001
     21 C          -0.1684    3.0806    1.0089 C.3     1  LIG1      -0.09999999999999964
     22 C           1.6718    4.7917    1.2431 C.3     1  LIG1       0.1299999999999999
     23 C           0.0987    4.2899    3.2187 C.2     1  LIG1       0.5800000000000001
     24 C          -1.8207   -4.2817   -0.9280 C.2     1  LIG1       0.5599999999999996
     25 C           1.8492   -4.6513   -0.5445 C.3     1  LIG1      0.11000000000000032
     26 C           0.0328    2.9469   -0.5432 C.3     1  LIG1      0.1200000000000001
     27 C          -1.6482   -0.7636   -0.9411 C.3     1  LIG1      0.040000000000000036
     28 C          -1.5918    0.8138   -0.4916 C.3     1  LIG1      0.09999999999999964
     29 C           0.2011    4.4604    1.6411 C.3     1  LIG1       -0.040000000000000036
     30 C          -0.8867   -3.5089    0.1089 C.3     1  LIG1       0.019999999999999574
     31 O           3.3341    4.8987   -0.5054 O.3     1  LIG1      -0.7100000000000009
     32 O           2.6242    3.9217    1.8384 O.3     1  LIG1        -0.75
     33 O           1.0408    3.6201    3.7661 O.co2   1  LIG1      -0.6899999999999995
     34 O          -0.8963    4.7742    3.7879 O.co2   1  LIG1      -0.6500000000000004
     35 O          -2.7248   -4.9640   -0.3861 O.co2   1  LIG1      -0.6899999999999995
     36 O          -1.5765   -4.1471   -2.1578 O.co2   1  LIG1      -0.6600000000000001
     37 H           1.8725   -5.9833   -2.2728 H       1  LIG1          0.14
     38 H           3.0418   -6.4308   -1.0106 H       1  LIG1          0.13
     39 H           3.3660   -5.0450   -2.0744 H       1  LIG1          0.14
     40 H           3.3542   -4.9482    1.0185 H       1  LIG1          0.14
     41 H           3.6846   -3.5688   -0.0512 H       1  LIG1          0.14
     42 H           2.4413   -3.4419    1.1982 H       1  LIG1       0.15000000000000002
     43 H          -1.0495    3.3726   -2.3958 H       1  LIG1       0.15000000000000002
     44 H          -1.8174    4.0979   -0.9791 H       1  LIG1       0.15000000000000002
     45 H          -0.3643    4.8106   -1.6525 H       1  LIG1       0.15000000000000002
     46 H          -3.3996   -0.7325   -2.3085 H       1  LIG1          0.13
     47 H          -1.8729   -0.3572   -3.1283 H       1  LIG1          0.14
     48 H          -2.2121   -2.0162   -2.6051 H       1  LIG1       0.16000000000000003
     49 H          -2.6924    1.6111   -2.2415 H       1  LIG1       0.15000000000000002
     50 H          -3.7073    0.9333   -0.9616 H       1  LIG1          0.14
     51 H          -2.9704    2.5089   -0.7535 H       1  LIG1       0.15000000000000002
     52 H          -0.4834    6.5018    1.8503 H       1  LIG1          0.13
     53 H          -0.6147    5.9085    0.1840 H       1  LIG1          0.14
     54 H          -1.7614    5.3780    1.4357 H       1  LIG1       0.15000000000000002
     55 H           1.5907   -0.9668   -2.1825 H       1  LIG1          0.12
     56 H          -0.4053    1.0449   -2.9963 H       1  LIG1          0.14
     57 H           1.2477    1.3571   -2.4991 H       1  LIG1          0.14
     58 H          -2.3420    3.1336    1.0773 H       1  LIG1          0.14
     59 H          -1.5942    2.5847    2.5503 H       1  LIG1          0.13
     60 H          -2.7239    0.7323    1.3930 H       1  LIG1          0.13
     61 H          -1.0043    0.4110    1.5669 H       1  LIG1          0.13
     62 H           0.1539   -5.9933   -0.5649 H       1  LIG1          0.12
     63 H           1.2141   -6.2146    0.8301 H       1  LIG1          0.12
     64 H          -3.1829   -0.9616    0.6205 H       1  LIG1          0.13
     65 H          -3.2029   -2.2370   -0.5611 H       1  LIG1          0.13
     66 H          -1.0142   -5.2033    1.4194 H       1  LIG1          0.12
     67 H           0.3084   -4.0985    1.8370 H       1  LIG1          0.12
     68 H          -2.5018   -3.1880    1.5002 H       1  LIG1       0.10999999999999999
     69 H          -1.1618   -2.0345    1.6860 H       1  LIG1          0.12
     70 H           2.0297   -2.8667   -1.7378 H       1  LIG1          0.12
     71 H           0.6370   -3.8774   -2.1826 H       1  LIG1          0.14
     72 H           1.7236    3.3171   -1.9030 H       1  LIG1          0.13
     73 H           2.1696    2.5667   -0.3680 H       1  LIG1          0.12
     74 H           0.7981   -2.2659    0.3732 H       1  LIG1          0.12
     75 H           1.4159    5.4932   -0.7936 H       1  LIG1          0.13
     76 H           0.4858    0.9455   -0.1177 H       1  LIG1          0.12
     77 H           0.5878    2.4079    1.4356 H       1  LIG1       0.10999999999999999
     78 H           1.8811    5.8365    1.5474 H       1  LIG1       0.09999999999999998
     79 H           3.7392    4.4288    0.2494 H       1  LIG1       0.41000000000000003
     80 H           2.1760    3.6642    2.7204 H       1  LIG1       0.42000000000000004
@<TRIPOS>BOND
     1    47     4    1
     2    56     8    1
     3    48     4    1
     4    57     8    1
     5    43     3    1
     6     4    46    1
     7     4    27    1
     8    37     1    1
     9    49     5    1
    10     8     7    1
    11     8    20    1
    12    71    15    1
    13    55     7    1
    14    36    24   ar
    15    39     1    1
    16     7    17    1
    17    72    16    1
    18    70    15    1
    19    45     3    1
    20     1    38    1
    21     1    25    1
    22     3    44    1
    23     3    26    1
    24    15    25    1
    25    15    18    1
    26    17    27    1
    27    17    18    1
    28     5    50    1
    29     5    51    1
    30     5    28    1
    31    27    28    1
    32    27    12    1
    33    24    35   ar
    34    24    30    1
    35    20    26    1
    36    20    28    1
    37    20    76    1
    38    16    26    1
    39    16    73    1
    40    16    19    1
    41    75    19    1
    42    62    11    1
    43    65    12    1
    44    25    11    1
    45    25     2    1
    46    26    21    1
    47    31    19    1
    48    31    79    1
    49    18    30    1
    50    18    74    1
    51    28    10    1
    52    19    22    1
    53    41     2    1
    54    12    64    1
    55    12    14    1
    56    30    14    1
    57    30    13    1
    58    53     6    1
    59    11    63    1
    60    11    13    1
    61     2    40    1
    62     2    42    1
    63    14    68    1
    64    14    69    1
    65    13    66    1
    66    13    67    1
    67    21    77    1
    68    21     9    1
    69    21    29    1
    70    10    60    1
    71    10     9    1
    72    10    61    1
    73    58     9    1
    74     6    54    1
    75     6    29    1
    76     6    52    1
    77    22    78    1
    78    22    29    1
    79    22    32    1
    80     9    59    1
    81    29    23    1
    82    32    80    1
    83    23    33   ar
    84    23    34   ar
