@<TRIPOS>MOLECULE
IERHLVCPSMICTF-XVFCMESISA-L	6044664	-1457.7570300688737
 33 34 0 0 0
SMALL
MULLIKEN NwChem

@<TRIPOS>ATOM
      1 C           1.2973   -0.8581   -4.6279 C.ar    1  LIG1      -0.2400000000000002
      2 C           1.2169   -1.2902   -3.3542 C.ar    1  LIG1       0.05999999999999961
      3 C          -1.7406    0.4592    0.9251 C.3     1  LIG1       -0.05999999999999961
      4 C          -0.4826   -0.4042    0.8154 C.3     1  LIG1       0.08999999999999986
      5 C           1.2815    0.5850   -4.8900 C.ar    1  LIG1       0.41000000000000014
      6 C           0.8244    0.3540    1.1190 C.3     1  LIG1       0.1200000000000001
      7 C           1.8378   -0.3292    0.1657 C.3     1  LIG1       0.08000000000000007
      8 C           0.9676   -0.9433   -0.9566 C.3     1  LIG1       0.2699999999999996
      9 C           1.0495    1.0167   -2.5557 C.ar    1  LIG1       0.6600000000000001
     10 N           1.3949    0.9857   -6.1339 N.pl3   1  LIG1      -0.7999999999999998
     11 N           1.1446    1.4455   -3.8223 N.ar    1  LIG1      -0.6699999999999999
     12 N           1.1384   -0.4165   -2.2921 N.ar    1  LIG1      -0.4900000000000002
     13 O           1.2808    0.2101    2.4581 O.3     1  LIG1      -0.7400000000000002
     14 O           2.4936   -1.3862    0.8677 O.3     1  LIG1      -0.7100000000000009
     15 O           0.9118    1.7462   -1.5581 O.2     1  LIG1      -0.6400000000000006
     16 O          -0.8361   -0.4078    3.9922 O.3     1  LIG1      -0.7100000000000009
     17 O          -2.4939    1.4531    4.5714 O.3     1  LIG1      -0.6999999999999993
     18 O          -3.3872   -0.6216    3.3237 O.2     1  LIG1      -0.6899999999999995
     19 O          -1.8454    1.1251    2.1842 O.3     1  LIG1      -0.5800000000000001
     20 O          -0.4000   -0.8436   -0.5428 O.3     1  LIG1      -0.5500000000000007
     21 P          -2.1458    0.1993    3.5348 P.3     1  LIG1          1.08
     22 H           1.3745   -1.5516   -5.4590 H       1  LIG1          0.13
     23 H           1.2206   -2.3461   -3.0892 H       1  LIG1       0.18000000000000005
     24 H          -1.6658    1.2358    0.1568 H       1  LIG1       0.16000000000000003
     25 H          -2.6346   -0.1504    0.7394 H       1  LIG1       0.15000000000000002
     26 H          -0.5475   -1.2714    1.4895 H       1  LIG1       0.15000000000000002
     27 H           0.7193    1.4052    0.8430 H       1  LIG1       0.15000000000000002
     28 H           2.5651    0.3786   -0.2429 H       1  LIG1       0.15000000000000002
     29 H           1.2415   -2.0057   -1.0108 H       1  LIG1       0.16000000000000003
     30 H           1.3580    2.0133   -6.0932 H       1  LIG1          0.25
     31 H           0.5004    0.0243    3.0565 H       1  LIG1       0.45999999999999996
     32 H           2.3048   -1.1490    1.8044 H       1  LIG1       0.42000000000000004
     33 H          -3.4306    1.6491    4.4149 H       1  LIG1       0.44999999999999996
@<TRIPOS>BOND
     1    10    30    1
     2    10     5    1
     3    22     1    1
     4     5     1   ar
     5     5    11   ar
     6     1     2   ar
     7    11     9   ar
     8     2    23    1
     9     2    12   ar
    10     9    12   ar
    11     9    15    2
    12    12     8    1
    13    29     8    1
    14     8    20    1
    15     8     7    1
    16    20     4    1
    17    28     7    1
    18    24     3    1
    19     7    14    1
    20     7     6    1
    21    25     3    1
    22     4     3    1
    23     4     6    1
    24     4    26    1
    25    27     6    1
    26    14    32    1
    27     3    19    1
    28     6    13    1
    29    19    21    1
    30    13    31    1
    31    18    21    2
    32    21    16    1
    33    21    17    1
    34    33    17    1
