@<TRIPOS>MOLECULE
IEZWLIJBCDCGEU-UHFFFAOYSA-M	6044665	-1054.39262849554
 34 33 0 0 0
SMALL
MULLIKEN NwChem

@<TRIPOS>ATOM
      1 C          -1.6770   -0.2455    4.5863 C.3     1  LIG1      -0.5999999999999996
      2 C           0.2432   -0.5960    0.0786 C.3     1  LIG1      -0.2699999999999996
      3 C          -0.4848    0.2441    1.1428 C.3     1  LIG1      -0.2699999999999996
      4 C          -0.1315   -0.2719   -1.3770 C.3     1  LIG1      -0.28000000000000025
      5 C          -2.0222    0.1932    1.0793 C.3     1  LIG1      -0.2699999999999996
      6 C           0.0815    1.1925   -1.7982 C.3     1  LIG1      -0.2599999999999998
      7 C          -2.6354   -1.2123    1.1592 C.3     1  LIG1      -0.2599999999999998
      8 C           1.5009    1.7267   -1.5060 C.3     1  LIG1       -0.3600000000000003
      9 C          -2.3115   -2.0115    2.4277 C.3     1  LIG1      -0.41999999999999993
     10 C           2.5929    0.7955   -2.0490 C.2     1  LIG1       0.3899999999999997
     11 C           2.6378    0.6773   -3.5838 C.2     1  LIG1       0.4800000000000004
     12 O           3.3163    0.1782   -1.2704 O.2     1  LIG1      -0.5500000000000007
     13 O           1.8078   -0.1582   -4.0328 O.co2   1  LIG1      -0.6300000000000008
     14 O           3.4287    1.4495   -4.1660 O.co2   1  LIG1      -0.6500000000000004
     15 S          -3.0156   -1.3487    4.0017 S.3     1  LIG1      -0.010000000000001563
     16 H          -1.9533    0.0784    5.5942 H       1  LIG1       0.18999999999999995
     17 H          -1.5589    0.6338    3.9494 H       1  LIG1       0.19999999999999996
     18 H          -0.7258   -0.7844    4.6392 H       1  LIG1       0.19999999999999996
     19 H           1.3241   -0.4594    0.1981 H       1  LIG1          0.13
     20 H           0.0522   -1.6636    0.2647 H       1  LIG1          0.13
     21 H          -0.1761    1.2934    1.0467 H       1  LIG1          0.14
     22 H          -0.1431   -0.0734    2.1381 H       1  LIG1          0.14
     23 H           0.4762   -0.8833   -2.0534 H       1  LIG1          0.13
     24 H          -1.1814   -0.5441   -1.5654 H       1  LIG1          0.14
     25 H          -2.3534    0.6523    0.1394 H       1  LIG1          0.14
     26 H          -2.4479    0.8121    1.8813 H       1  LIG1          0.14
     27 H          -0.0912    1.2499   -2.8775 H       1  LIG1          0.14
     28 H          -0.6537    1.8500   -1.3087 H       1  LIG1          0.14
     29 H          -2.2908   -1.8069    0.3020 H       1  LIG1       0.15000000000000002
     30 H          -3.7266   -1.1358    1.0658 H       1  LIG1          0.14
     31 H           1.6178    2.7087   -1.9844 H       1  LIG1       0.16000000000000003
     32 H           1.6683    1.8473   -0.4279 H       1  LIG1       0.15000000000000002
     33 H          -1.2309   -2.1286    2.5642 H       1  LIG1       0.18999999999999995
     34 H          -2.7314   -3.0203    2.3446 H       1  LIG1       0.18999999999999995
@<TRIPOS>BOND
     1    14    11   ar
     2    13    11   ar
     3    11    10    1
     4    27     6    1
     5    23     4    1
     6    10     8    1
     7    10    12    2
     8    31     8    1
     9     6     8    1
    10     6     4    1
    11     6    28    1
    12    24     4    1
    13     8    32    1
    14     4     2    1
    15     2    19    1
    16     2    20    1
    17     2     3    1
    18    25     5    1
    19    29     7    1
    20    21     3    1
    21    30     7    1
    22     5     3    1
    23     5     7    1
    24     5    26    1
    25     3    22    1
    26     7     9    1
    27    34     9    1
    28     9    33    1
    29     9    15    1
    30    17     1    1
    31    15     1    1
    32     1    18    1
    33     1    16    1
