@<TRIPOS>MOLECULE
IGMNYECMUMZDDF-UHFFFAOYSA-M	6044666	-609.9844741363053
 19 19 0 0 0
SMALL
MULLIKEN NwChem

@<TRIPOS>ATOM
      1 C          -2.5667   -0.3050    0.9693 C.2     1  LIG1      -0.2999999999999998
      2 C          -1.9020    0.8949    0.7502 C.2     1  LIG1      -0.17999999999999972
      3 C          -0.4884   -1.4927    0.5923 C.2     1  LIG1      -0.3700000000000001
      4 C           1.6691   -0.2633    0.1519 C.3     1  LIG1       -0.4400000000000004
      5 C           0.1733   -0.2857    0.3854 C.2     1  LIG1      0.16000000000000014
      6 C          -1.9029   -1.5931    0.9003 C.2     1  LIG1       0.41000000000000014
      7 C          -0.5346    0.9249    0.4617 C.3     1  LIG1       0.1900000000000004
      8 C           2.2023    0.5559   -1.0037 C.2     1  LIG1       0.5899999999999999
      9 O          -2.4931   -2.6958    1.0906 O.2     1  LIG1      -0.7799999999999994
     10 O           0.1292    2.1541    0.2342 O.3     1  LIG1      -0.7300000000000004
     11 O           3.3252    1.0157   -1.0809 O.2     1  LIG1      -0.5299999999999994
     12 O           1.3234    0.7049   -2.0406 O.3     1  LIG1      -0.5899999999999999
     13 H          -3.6314   -0.3125    1.1997 H       1  LIG1       0.08999999999999997
     14 H          -2.4343    1.8458    0.7986 H       1  LIG1          0.12
     15 H           0.0623   -2.4322    0.5353 H       1  LIG1       0.08999999999999997
     16 H           2.2144    0.1090    1.0277 H       1  LIG1       0.18999999999999995
     17 H           2.0282   -1.2874   -0.0231 H       1  LIG1       0.20999999999999996
     18 H           0.1770    2.2581   -0.7299 H       1  LIG1       0.43000000000000005
     19 H           1.8289    1.1942   -2.7161 H       1  LIG1       0.43999999999999995
@<TRIPOS>BOND
     1    19    12    1
     2    12     8    1
     3    11     8    2
     4     8     4    1
     5    18    10    1
     6    17     4    1
     7     4     5    1
     8     4    16    1
     9    10     7    1
    10     5     7    1
    11     5     3    2
    12     7     2    1
    13    15     3    1
    14     3     6    1
    15     2    14    1
    16     2     1    2
    17     6     1    1
    18     6     9    2
    19     1    13    1
