@<TRIPOS>MOLECULE
IGQLDUYTWDABFK-GUTXKFCHSA-M	11095372	-1424.0703485878473
 51 53 0 0 0
SMALL
MULLIKEN NwChem

@<TRIPOS>ATOM
      1 C          -5.4658    1.2341    0.0589 C.3     1  LIG1      -0.5499999999999998
      2 C          -3.1044    3.9472    0.7065 C.3     1  LIG1       -0.3099999999999996
      3 C          -3.9865    3.4662   -1.5155 C.3     1  LIG1       -0.3200000000000003
      4 C          -3.7226   -0.5579    0.3079 C.ar    1  LIG1      -0.28000000000000025
      5 C          -1.6253    1.2034   -0.0837 C.ar    1  LIG1      -0.2400000000000002
      6 C           1.1374    0.2392    0.3209 C.3     1  LIG1       -0.20999999999999996
      7 C           4.6756    2.9885   -0.5316 C.3     1  LIG1       -0.040000000000000036
      8 C          -4.0237    0.7789    0.0593 C.ar    1  LIG1      0.16999999999999993
      9 C          -2.4102   -1.0464    0.3812 C.ar    1  LIG1       0.2699999999999996
     10 C          -2.9416    1.6658   -0.1587 C.ar    1  LIG1       0.20000000000000018
     11 C          -1.3320   -0.1381    0.2039 C.ar    1  LIG1       0.3799999999999999
     12 C           1.8843    0.3144   -1.0266 C.3     1  LIG1       0.1200000000000001
     13 C           3.6380    1.9558   -0.1082 C.3     1  LIG1       0.11000000000000032
     14 C          -1.0095   -2.8515    0.6428 C.ar    1  LIG1       0.20000000000000018
     15 C           2.6625    1.6254   -1.2492 C.3     1  LIG1       0.1299999999999999
     16 C           0.1602   -2.0174    0.3472 C.ar    1  LIG1       0.5999999999999996
     17 C          -0.7116   -4.3194    0.9487 C.ar    1  LIG1       0.5199999999999996
     18 C           1.5208   -3.9498    0.2423 C.ar    1  LIG1       0.6100000000000003
     19 N          -2.2230   -2.3913    0.6569 N.ar    1  LIG1      -0.5899999999999999
     20 N           1.3440   -2.4996    0.1645 N.ar    1  LIG1      -0.6900000000000004
     21 N           0.5341   -4.7704    0.6821 N.ar    1  LIG1      -0.6399999999999997
     22 N          -3.0911    3.0638   -0.4471 N.pl3   1  LIG1      -0.46999999999999975
     23 N          -0.0404   -0.6391    0.2983 N.ar    1  LIG1      -0.5899999999999999
     24 O           5.4276    3.3046    0.6522 O.3     1  LIG1      -0.6799999999999997
     25 O           2.8512   -0.7065   -1.1737 O.3     1  LIG1      -0.7200000000000006
     26 O           2.8758    2.4793    0.9827 O.3     1  LIG1      -0.6799999999999997
     27 O           3.3649    1.5020   -2.4843 O.3     1  LIG1      -0.6899999999999995
     28 O          -1.6334   -5.0038    1.4073 O.2     1  LIG1      -0.6199999999999992
     29 O           2.6365   -4.3358   -0.1120 O.2     1  LIG1      -0.6099999999999994
     30 H          -5.8526    1.4032   -0.9544 H       1  LIG1       0.18000000000000005
     31 H          -6.1031    0.4779    0.5285 H       1  LIG1       0.17000000000000004
     32 H          -5.5963    2.1708    0.6122 H       1  LIG1       0.18000000000000005
     33 H          -2.8954    4.9764    0.3846 H       1  LIG1       0.16000000000000003
     34 H          -2.3235    3.6425    1.4089 H       1  LIG1       0.17000000000000004
     35 H          -4.0697    3.9555    1.2496 H       1  LIG1          0.14
     36 H          -3.6418    4.4236   -1.9313 H       1  LIG1       0.16000000000000003
     37 H          -5.0395    3.6023   -1.2103 H       1  LIG1          0.14
     38 H          -3.9566    2.7203   -2.3149 H       1  LIG1       0.17000000000000004
     39 H          -4.5156   -1.2808    0.4805 H       1  LIG1       0.16000000000000003
     40 H          -0.8404    1.9182   -0.2982 H       1  LIG1       0.18000000000000005
     41 H           1.8239   -0.1478    1.0780 H       1  LIG1       0.18999999999999995
     42 H           0.8199    1.2264    0.6498 H       1  LIG1       0.20999999999999996
     43 H           5.3160    2.5829   -1.3225 H       1  LIG1          0.14
     44 H           4.1602    3.8814   -0.9187 H       1  LIG1          0.14
     45 H           1.1310    0.2591   -1.8330 H       1  LIG1          0.14
     46 H           4.1598    1.0342    0.1905 H       1  LIG1          0.13
     47 H           1.9657    2.4685   -1.3471 H       1  LIG1       0.15000000000000002
     48 H           5.9681    4.0847    0.4636 H       1  LIG1       0.43999999999999995
     49 H           2.4832   -1.5327   -0.7351 H       1  LIG1       0.43000000000000005
     50 H           3.5349    2.8330    1.6035 H       1  LIG1       0.42000000000000004
     51 H           3.6416    0.5643   -2.4943 H       1  LIG1       0.43000000000000005
@<TRIPOS>BOND
     1    51    27    1
     2    27    15    1
     3    38     3    1
     4    36     3    1
     5    45    12    1
     6     3    37    1
     7     3    22    1
     8    47    15    1
     9    43     7    1
    10    15    12    1
    11    15    13    1
    12    25    12    1
    13    25    49    1
    14    12     6    1
    15    30     1    1
    16    44     7    1
    17     7    13    1
    18     7    24    1
    19    22    10    1
    20    22     2    1
    21    40     5    1
    22    10     5   ar
    23    10     8   ar
    24    29    18    2
    25    13    46    1
    26    13    26    1
    27     5    11   ar
    28     1     8    1
    29     1    31    1
    30     1    32    1
    31     8     4   ar
    32    20    18   ar
    33    20    16   ar
    34    11    23   ar
    35    11     9   ar
    36    18    21   ar
    37    23     6    1
    38    23    16   ar
    39     4     9   ar
    40     4    39    1
    41     6    42    1
    42     6    41    1
    43    16    14   ar
    44     9    19   ar
    45    33     2    1
    46    48    24    1
    47    14    19   ar
    48    14    17   ar
    49    21    17   ar
    50     2    35    1
    51     2    34    1
    52    17    28    2
    53    26    50    1
