@<TRIPOS>MOLECULE
IIACRCGMVDHOTQ-UHFFFAOYSA-M	6044668	-679.8931034374192
 7 6 0 0 0
SMALL
MULLIKEN NwChem

@<TRIPOS>ATOM
      1 N           0.4776    1.2880    0.7706 N.3     1  LIG1      -0.8600000000000003
      2 O           0.5041   -1.3013    0.6248 O.3     1  LIG1      -0.6500000000000004
      3 O          -1.5482   -0.0342   -0.0148 O.2     1  LIG1      -0.6400000000000006
      4 O           0.5072    0.0692   -1.4607 O.2     1  LIG1      -0.6400000000000006
      5 S          -0.0731   -0.1411   -0.1131 S.3     1  LIG1       1.0899999999999999
      6 H           0.1687    1.1294    1.7326 H       1  LIG1          0.35
      7 H           1.4963    1.1995    0.7906 H       1  LIG1           0.35
@<TRIPOS>BOND
     1     4     5    2
     2     5     3    2
     3     5     2    1
     4     5     1    1
     5     1     7    1
     6     1     6    1
