@<TRIPOS>MOLECULE
IJNJLGFTSIAHEA-UHFFFAOYSA-N	6044671	-190.63800772422775
 6 5 0 0 0
SMALL
MULLIKEN NwChem

@<TRIPOS>ATOM
      1 C           1.8453    0.2333   -0.1496 C.1     1  LIG1      -0.4299999999999997
      2 C           0.6363    0.1934   -0.1244 C.1     1  LIG1      0.2699999999999996
      3 C          -0.8125    0.1869   -0.1199 C.2     1  LIG1       0.13999999999999968
      4 O          -1.4846   -0.6654    0.4263 O.2     1  LIG1      -0.41999999999999993
      5 H           2.9129    0.2507   -0.1601 H       1  LIG1          0.26
      6 H          -1.2773    1.0342   -0.6624 H       1  LIG1       0.18000000000000005
@<TRIPOS>BOND
     1     6     3    1
     2     5     1    1
     3     1     2    3
     4     2     3    1
     5     3     4    2
