@<TRIPOS>MOLECULE
IJOJIVNDFQSGAB-SQOUGZDYSA-L	11095369	-1252.6404748311927
 25 25 0 0 0
SMALL
MULLIKEN NwChem

@<TRIPOS>ATOM
      1 C           0.6599    0.1707    1.7026 C.3     1  LIG1       -0.05999999999999961
      2 C          -0.6913    0.0255    1.0163 C.3     1  LIG1       0.08999999999999986
      3 C          -0.6510   -0.7059   -0.3240 C.3     1  LIG1       0.15000000000000036
      4 C          -2.0821   -0.6780   -0.9299 C.3     1  LIG1       0.1299999999999999
      5 C          -2.4098    0.7546   -1.2860 C.3     1  LIG1       0.04999999999999982
      6 C          -2.1825    1.6819   -0.0687 C.2     1  LIG1       0.5999999999999996
      7 O          -0.2243   -1.9957   -0.2386 O.3     1  LIG1      -0.8000000000000007
      8 O          -2.0626   -1.5599   -2.0312 O.3     1  LIG1      -0.7200000000000006
      9 O          -3.7443    0.9624   -1.7470 O.3     1  LIG1      -0.6899999999999995
     10 O          -2.8318    2.7245    0.0005 O.2     1  LIG1      -0.5500000000000007
     11 O           3.1316   -1.3187    1.7929 O.3     1  LIG1      -0.7300000000000004
     12 O           2.3346   -1.3807   -0.6804 O.3     1  LIG1      -0.7699999999999996
     13 O           4.0843    0.3572   -0.0125 O.2     1  LIG1      -0.6999999999999993
     14 O           1.6826    0.6045    0.8426 O.3     1  LIG1      -0.6099999999999994
     15 O          -1.2869    1.3954    0.8617 O.3     1  LIG1      -0.4800000000000004
     16 P           2.9705   -0.4916    0.5350 P.3     1  LIG1       1.0399999999999991
     17 H           0.5429    0.8883    2.5354 H       1  LIG1          0.14
     18 H           0.9065   -0.8058    2.1370 H       1  LIG1       0.16000000000000003
     19 H          -1.3779   -0.4923    1.7021 H       1  LIG1       0.16000000000000003
     20 H          -0.0111   -0.0744   -0.9836 H       1  LIG1       0.07999999999999996
     21 H          -2.8100   -1.0229   -0.1664 H       1  LIG1       0.10999999999999999
     22 H          -1.6896    1.0790   -2.0578 H       1  LIG1       0.17000000000000004
     23 H           1.4121   -1.7344   -0.4539 H       1  LIG1       0.43000000000000005
     24 H          -1.3200   -2.1509   -1.7016 H       1  LIG1          0.39
     25 H          -3.9431    1.8624   -1.4213 H       1  LIG1       0.42000000000000004
@<TRIPOS>BOND
     1    22     5    1
     2     8    24    1
     3     8     4    1
     4     9    25    1
     5     9     5    1
     6     5     4    1
     7     5     6    1
     8    20     3    1
     9     4     3    1
    10     4    21    1
    11    12    23    1
    12    12    16    1
    13     3     7    1
    14     3     2    1
    15     6    10    2
    16     6    15    1
    17    13    16    2
    18    16    14    1
    19    16    11    1
    20    14     1    1
    21    15     2    1
    22     2    19    1
    23     2     1    1
    24     1    18    1
    25     1    17    1
