@<TRIPOS>MOLECULE
IKHGUXGNUITLKF-UHFFFAOYSA-N	6044673	-153.8037114671317
 7 6 0 0 0
SMALL
MULLIKEN NwChem

@<TRIPOS>ATOM
      1 C           0.5160    0.4880   -0.9239 C.3     1  LIG1      -0.5300000000000002
      2 C          -0.0063   -0.4347    0.1499 C.2     1  LIG1       0.2699999999999996
      3 O          -0.7078   -0.0875    1.0734 O.2     1  LIG1      -0.4399999999999995
      4 H           0.1758    1.5106   -0.7451 H       1  LIG1       0.18000000000000005
      5 H           0.1720    0.1442   -1.9085 H       1  LIG1       0.19999999999999996
      6 H           1.6134    0.4542   -0.9425 H       1  LIG1       0.19999999999999996
      7 H           0.3026   -1.5003    0.0410 H       1  LIG1           0.14
@<TRIPOS>BOND
     1     5     1    1
     2     6     1    1
     3     1     4    1
     4     1     2    1
     5     7     2    1
     6     2     3    2
