@<TRIPOS>MOLECULE
ILRYLPWNYFXEMH-WHFBIAKZSA-N	6044675	-1083.6140971213706
 28 27 0 0 0
SMALL
MULLIKEN NwChem

@<TRIPOS>ATOM
      1 CB         -1.0656    0.0176   -0.9048 C.3     1  CYS1      -0.28000000000000025
      2 CG         -1.5823   -0.2630    0.5086 C.3     1  CYS1      -0.4299999999999997
      3 CB          1.0465    0.2964    1.6022 C.3     1  CYS1       -0.4400000000000004
      4 CA         -1.2315    1.4932   -1.3218 C.3     1  CYS1       -0.05999999999999961
      5 CA          1.5433   -1.0971    2.0240 C.3     1  CYS1       -0.03000000000000025
      6 C          -0.4392    1.7442   -2.6011 C.2     1  CYS1       0.5800000000000001
      7 C           0.9957   -2.1695    1.0847 C.2     1  CYS1       0.5899999999999999
      8 N          -2.6460    1.8265   -1.4446 N.3     1  CYS1        -0.75
      9 N           3.0120   -1.0861    1.9960 N.3     1  CYS1        -0.75
     10 O          -0.9197    1.9416   -3.6961 O.2     1  CYS1      -0.5099999999999998
     11 OXT         0.8996    1.6980   -2.3808 O.3     1  CYS1      -0.5800000000000001
     12 O           1.2797   -2.2443   -0.0940 O.2     1  CYS1      -0.5099999999999998
     13 OXT         0.1846   -3.0600    1.7006 O.3     1  CYS1      -0.5800000000000001
     14 SG         -0.7333    0.6494    1.8695 S.3     1  CYS1      0.019999999999999574
     15 HB1        -1.6390   -0.6073   -1.6045 H       1  CYS1       0.17000000000000004
     16 HB2        -0.0222   -0.2921   -1.0025 H       1  CYS1       0.18000000000000005
     17 HG1        -2.6208    0.0716    0.5886 H       1  CYS1       0.18999999999999995
     18 HG2        -1.5540   -1.3356    0.7184 H       1  CYS1       0.18999999999999995
     19 HB1         1.3214    0.4916    0.5597 H       1  CYS1       0.19999999999999996
     20 HB2         1.5752    1.0274    2.2202 H       1  CYS1       0.20999999999999996
     21 HA         -0.7906    2.1149   -0.5339 H       1  CYS1       0.18999999999999995
     22 HA          1.2107   -1.3059    3.0438 H       1  CYS1       0.18000000000000005
     23 H1         -2.7535    2.8369   -1.5159 H       1  CYS1       0.32999999999999996
     24 H2         -2.9850    1.4583   -2.3340 H       1  CYS1       0.31999999999999995
     25 H1          3.3736   -1.9528    2.3927 H       1  CYS1       0.33999999999999997
     26 H2          3.3159   -1.0697    1.0218 H       1  CYS1       0.32999999999999996
     27 HXT         1.3303    1.8295   -3.2465 H       1  CYS1       0.44999999999999996
     28 HXT        -0.0878   -3.7064    1.0203 H       1  CYS1       0.44999999999999996
@<TRIPOS>BOND
     1    10     6    2
     2    27    11    1
     3     6    11    1
     4     6     4    1
     5    24     8    1
     6    15     1    1
     7    23     8    1
     8     8     4    1
     9     4     1    1
    10     4    21    1
    11    16     1    1
    12     1     2    1
    13    12     7    2
    14     2    17    1
    15     2    18    1
    16     2    14    1
    17    19     3    1
    18    28    13    1
    19    26     9    1
    20     7    13    1
    21     7     5    1
    22     3    14    1
    23     3     5    1
    24     3    20    1
    25     9     5    1
    26     9    25    1
    27     5    22    1
