@<TRIPOS>MOLECULE
ILUZPRRJJSFYEH-BMBLOSQWSA-N	6044676	-1779.9079989832398
 96 100 0 0 0
SMALL
MULLIKEN NwChem

@<TRIPOS>ATOM
      1 C          -6.1157   -8.8681    0.4161 C.3     1  LIG1      -0.45999999999999996
      2 C          -4.2095   -8.9774    2.0609 C.3     1  LIG1      -0.45999999999999996
      3 C          -5.2657   -6.0052   -0.2924 C.3     1  LIG1      -0.46999999999999975
      4 C          -0.1924   -6.5201    2.6710 C.3     1  LIG1      -0.46999999999999975
      5 C          -2.1108    1.9242    0.6496 C.3     1  LIG1      -0.4900000000000002
      6 C          -1.9302   -3.2183   -0.1111 C.3     1  LIG1      -0.4900000000000002
      7 C          -3.3628   -6.2526    1.2853 C.2     1  LIG1      -0.11000000000000032
      8 C          -2.0474   -6.1567    1.0681 C.2     1  LIG1      -0.11000000000000032
      9 C          -0.0980    0.7413   -2.0544 C.2     1  LIG1      -0.2400000000000002
     10 C           0.0047   -0.7378   -1.7658 C.3     1  LIG1      -0.3099999999999996
     11 C           0.7099   -4.7936    0.1270 C.3     1  LIG1      -0.2999999999999998
     12 C           1.0238   -3.4766   -0.6545 C.3     1  LIG1      -0.2999999999999998
     13 C           0.5021    3.5723    0.9287 C.3     1  LIG1      -0.29000000000000004
     14 C          -0.7423   -0.6558    1.9983 C.3     1  LIG1      -0.29000000000000004
     15 C           0.3645    2.0689    1.2229 C.3     1  LIG1      -0.29000000000000004
     16 C          -1.2759   -2.1076    2.0862 C.3     1  LIG1      -0.3099999999999996
     17 C          -0.2275    3.1551   -1.4720 C.3     1  LIG1      -0.3600000000000003
     18 C           3.7483    7.9797    0.1741 C.3     1  LIG1       -0.05999999999999961
     19 C          -5.1480   -8.0442    1.2767 C.3     1  LIG1      -0.05999999999999961
     20 C          -4.3508   -7.0106    0.4322 C.3     1  LIG1      -0.11000000000000032
     21 C          -1.0714   -5.4504    1.9803 C.3     1  LIG1      -0.13999999999999968
     22 C          -0.3527    1.6850   -1.1359 C.2     1  LIG1      0.16999999999999993
     23 C           0.7937    3.8323   -0.5466 C.3     1  LIG1       0.15000000000000036
     24 C           0.3139   -0.9268   -0.2774 C.3     1  LIG1      -0.09999999999999964
     25 C          -0.1628   -4.3637    1.3466 C.3     1  LIG1      -0.08999999999999986
     26 C           0.4730   -2.3670    0.2577 C.3     1  LIG1      -0.11000000000000032
     27 C          -0.7572   -0.1686    0.5395 C.3     1  LIG1      -0.11000000000000032
     28 C           4.0494    6.5689   -0.3501 C.3     1  LIG1       0.08999999999999986
     29 C           4.6245    6.5081   -1.7728 C.3     1  LIG1       0.08999999999999986
     30 C           3.5449    6.6264   -2.8676 C.3     1  LIG1       0.09999999999999964
     31 C           2.3770    5.6599   -2.5625 C.3     1  LIG1       0.04999999999999982
     32 C           1.8425    5.9610   -1.1501 C.3     1  LIG1       0.34999999999999964
     33 C          -0.6979    1.3713    0.3243 C.3     1  LIG1      0.040000000000000036
     34 C          -0.7870   -3.0062    0.9065 C.3     1  LIG1      0.11000000000000032
     35 O           3.2979    7.9133    1.5176 O.3     1  LIG1      -0.6699999999999999
     36 O           5.2853    5.2326   -1.8777 O.3     1  LIG1      -0.6699999999999999
     37 O           3.1546    7.9932   -2.9071 O.3     1  LIG1      -0.6699999999999999
     38 O           2.7888    4.3195   -2.7493 O.3     1  LIG1      -0.6699999999999999
     39 O           0.7117    5.2629   -0.7713 O.3     1  LIG1      -0.5399999999999991
     40 O           2.8855    5.7338   -0.1940 O.3     1  LIG1      -0.5399999999999991
     41 H          -5.5735   -9.4321   -0.3535 H       1  LIG1          0.14
     42 H          -6.8558   -8.2383   -0.0883 H       1  LIG1       0.15000000000000002
     43 H          -6.6647   -9.5873    1.0346 H       1  LIG1          0.14
     44 H          -3.5621   -9.5478    1.3840 H       1  LIG1          0.14
     45 H          -3.5611   -8.4174    2.7415 H       1  LIG1       0.15000000000000002
     46 H          -4.7844   -9.7013    2.6505 H       1  LIG1          0.14
     47 H          -5.8704   -5.4338    0.4269 H       1  LIG1          0.14
     48 H          -4.6638   -5.2916   -0.8613 H       1  LIG1       0.15000000000000002
     49 H          -5.9494   -6.4963   -0.9912 H       1  LIG1       0.15000000000000002
     50 H           0.4387   -7.0457    1.9444 H       1  LIG1       0.15000000000000002
     51 H           0.4658   -6.0689    3.4219 H       1  LIG1       0.15000000000000002
     52 H          -0.8156   -7.2716    3.1690 H       1  LIG1       0.15000000000000002
     53 H          -2.1700    3.0129    0.5870 H       1  LIG1       0.16000000000000003
     54 H          -2.8502    1.5062   -0.0456 H       1  LIG1          0.14
     55 H          -2.4043    1.6376    1.6655 H       1  LIG1       0.15000000000000002
     56 H          -1.6444   -3.8735   -0.9393 H       1  LIG1          0.14
     57 H          -2.7922   -3.6814    0.3759 H       1  LIG1       0.15000000000000002
     58 H          -2.2637   -2.2696   -0.5404 H       1  LIG1       0.15000000000000002
     59 H          -3.7988   -5.7304    2.1425 H       1  LIG1          0.12
     60 H          -1.6194   -6.6861    0.2153 H       1  LIG1          0.13
     61 H           0.1270    1.0636   -3.0713 H       1  LIG1          0.13
     62 H          -0.9154   -1.2716   -2.0475 H       1  LIG1       0.15000000000000002
     63 H           0.8011   -1.1730   -2.3824 H       1  LIG1          0.14
     64 H           0.1804   -5.5059   -0.5173 H       1  LIG1          0.14
     65 H           1.6262   -5.2901    0.4625 H       1  LIG1          0.14
     66 H           2.0899   -3.3522   -0.8740 H       1  LIG1          0.13
     67 H           0.5074   -3.4732   -1.6203 H       1  LIG1          0.14
     68 H          -0.4174    4.1081    1.1971 H       1  LIG1          0.14
     69 H           1.3064    4.0195    1.5244 H       1  LIG1          0.14
     70 H          -1.3424   -0.0093    2.6479 H       1  LIG1          0.14
     71 H           0.2815   -0.6050    2.3855 H       1  LIG1          0.14
     72 H           0.1132    1.9259    2.2785 H       1  LIG1          0.14
     73 H           1.3345    1.5819    1.0620 H       1  LIG1          0.14
     74 H          -2.3733   -2.0752    2.0901 H       1  LIG1          0.13
     75 H          -0.9825   -2.5435    3.0499 H       1  LIG1          0.13
     76 H          -1.1819    3.6841   -1.3502 H       1  LIG1       0.15000000000000002
     77 H           0.0953    3.2893   -2.5089 H       1  LIG1       0.15000000000000002
     78 H           4.6676    8.5777    0.1682 H       1  LIG1       0.16000000000000003
     79 H           3.0257    8.4898   -0.4777 H       1  LIG1       0.16000000000000003
     80 H          -5.7440   -7.4731    2.0073 H       1  LIG1          0.12
     81 H          -3.7898   -7.5716   -0.3293 H       1  LIG1          0.12
     82 H          -1.6572   -4.9497    2.7649 H       1  LIG1          0.13
     83 H           1.7937    3.4656   -0.7878 H       1  LIG1       0.15000000000000002
     84 H           1.2782   -0.4250   -0.1086 H       1  LIG1          0.12
     85 H           0.5378   -4.0992    2.1526 H       1  LIG1          0.12
     86 H           1.1894   -2.2784    1.0877 H       1  LIG1          0.12
     87 H          -1.7302   -0.4683    0.1286 H       1  LIG1          0.13
     88 H           4.7900    6.1156    0.3156 H       1  LIG1       0.17000000000000004
     89 H           5.3447    7.3303   -1.8984 H       1  LIG1       0.17000000000000004
     90 H           3.9859    6.3216   -3.8316 H       1  LIG1       0.15000000000000002
     91 H           1.5573    5.8317   -3.2735 H       1  LIG1       0.16000000000000003
     92 H           1.5346    7.0161   -1.1271 H       1  LIG1       0.15000000000000002
     93 H           2.6578    7.1840    1.5435 H       1  LIG1       0.42000000000000004
     94 H           5.6953    5.1782   -2.7605 H       1  LIG1       0.43999999999999995
     95 H           2.2340    8.0534   -3.2312 H       1  LIG1       0.43999999999999995
     96 H           3.6008    4.2064   -2.2215 H       1  LIG1       0.43000000000000005
@<TRIPOS>BOND
     1    90    30    1
     2    91    31    1
     3    95    37    1
     4    61     9    1
     5    37    30    1
     6    30    31    1
     7    30    29    1
     8    94    36    1
     9    38    31    1
    10    38    96    1
    11    31    32    1
    12    77    17    1
    13    63    10    1
    14     9    10    1
    15     9    22    2
    16    62    10    1
    17    89    29    1
    18    36    29    1
    19    29    28    1
    20    10    24    1
    21    67    12    1
    22    17    76    1
    23    17    22    1
    24    17    23    1
    25    32    92    1
    26    32    39    1
    27    32    40    1
    28    22    33    1
    29    49     3    1
    30    56     6    1
    31    66    12    1
    32    48     3    1
    33    83    23    1
    34    39    23    1
    35    12    11    1
    36    12    26    1
    37    23    13    1
    38    58     6    1
    39    64    11    1
    40    79    18    1
    41    41     1    1
    42    28    40    1
    43    28    18    1
    44    28    88    1
    45    81    20    1
    46     3    47    1
    47     3    20    1
    48    24    84    1
    49    24    26    1
    50    24    27    1
    51     6    57    1
    52     6    34    1
    53    42     1    1
    54    54     5    1
    55    11    65    1
    56    11    25    1
    57    87    27    1
    58    78    18    1
    59    18    35    1
    60    60     8    1
    61    26    34    1
    62    26    86    1
    63    33    27    1
    64    33     5    1
    65    33    15    1
    66     1    43    1
    67     1    19    1
    68    20    19    1
    69    20     7    1
    70    27    14    1
    71    53     5    1
    72     5    55    1
    73    34    25    1
    74    34    16    1
    75    13    68    1
    76    13    15    1
    77    13    69    1
    78    73    15    1
    79     8     7    2
    80     8    21    1
    81    15    72    1
    82    19    80    1
    83    19     2    1
    84     7    59    1
    85    25    21    1
    86    25    85    1
    87    44     2    1
    88    35    93    1
    89    50     4    1
    90    21     4    1
    91    21    82    1
    92    14    16    1
    93    14    71    1
    94    14    70    1
    95     2    46    1
    96     2    45    1
    97    16    74    1
    98    16    75    1
    99     4    52    1
   100     4    51    1
