@<TRIPOS>MOLECULE
IMGVNJNCCGXBHD-UYBVJOGSSA-K	11095367	-3351.3187602743337
 84 89 0 0 0
SMALL
MULLIKEN NwChem

@<TRIPOS>ATOM
      1 C          -9.3229   -1.7181   -3.5312 C.3     1  LIG1      -0.5499999999999998
      2 C          -6.4341   -2.3311   -3.4348 C.3     1  LIG1      -0.5499999999999998
      3 C          -8.9929   -0.3746   -1.4222 C.ar    1  LIG1      -0.2599999999999998
      4 C          -6.2884   -0.9835   -1.3243 C.ar    1  LIG1      -0.2699999999999996
      5 C          -4.7179   -0.1195    1.0192 C.3     1  LIG1       -0.17999999999999972
      6 C          -0.2382   -1.0460    1.0659 C.3     1  LIG1       -0.08000000000000007
      7 C           4.1033    2.7178    0.5494 C.3     1  LIG1       -0.04999999999999982
      8 C           9.7682   -1.5269   -0.5323 C.ar    1  LIG1       0.16999999999999993
      9 C           5.4124   -1.9075   -1.4538 C.3     1  LIG1       0.20999999999999996
     10 C          -8.4567   -1.1851   -2.4144 C.ar    1  LIG1      0.1299999999999999
     11 C          -7.0735   -1.4828   -2.3600 C.ar    1  LIG1      0.1299999999999999
     12 C          -8.2205    0.1400   -0.3679 C.ar    1  LIG1       0.2599999999999998
     13 C          -6.8391   -0.1807   -0.3071 C.ar    1  LIG1       0.3700000000000001
     14 C          -3.6670    0.7622    0.3452 C.3     1  LIG1       0.1299999999999999
     15 C          -1.7518   -0.8776    0.8921 C.3     1  LIG1       0.1200000000000001
     16 C           4.3359    1.3071    1.0472 C.3     1  LIG1       0.08000000000000007
     17 C           7.6308   -2.2229   -1.9334 C.ar    1  LIG1       0.33000000000000007
     18 C          -8.1368    1.4200    1.5429 C.ar    1  LIG1       0.20000000000000018
     19 C          -2.2241    0.5933    0.8791 C.3     1  LIG1       0.08000000000000007
     20 C           5.2971    1.0625    2.2445 C.3     1  LIG1       0.04999999999999982
     21 C           6.4237    0.2171    1.5874 C.3     1  LIG1       0.13999999999999968
     22 C           8.9061   -2.5289   -2.4173 C.ar    1  LIG1       0.4800000000000004
     23 C           7.5455   -1.5021   -0.7367 C.ar    1  LIG1          0.54
     24 C          -6.7066    1.1300    1.7255 C.ar    1  LIG1       0.5599999999999996
     25 C          -8.7712    2.3224    2.6000 C.ar    1  LIG1           0.5
     26 C           5.5574   -0.5431    0.5751 C.3     1  LIG1       0.2599999999999998
     27 C          -6.6909    2.3346    3.7425 C.ar    1  LIG1       0.5800000000000001
     28 N           9.1269   -3.2284   -3.5854 N.pl3   1  LIG1      -0.7800000000000002
     29 N           9.9784   -2.1696   -1.6886 N.ar    1  LIG1      -0.5300000000000002
     30 N           8.6051   -1.1495    0.0068 N.ar    1  LIG1      -0.5599999999999996
     31 N           6.3139   -2.4392   -2.3269 N.pl3   1  LIG1      -0.7199999999999998
     32 N          -8.8491    0.9476    0.5659 N.ar    1  LIG1      -0.5999999999999996
     33 N          -6.0073    1.5635    2.7179 N.ar    1  LIG1      -0.6500000000000004
     34 N          -8.0034    2.6999    3.6420 N.ar    1  LIG1      -0.6399999999999997
     35 N          -6.1014    0.3044    0.7613 N.ar    1  LIG1      -0.5999999999999996
     36 N           6.1989   -1.3134   -0.4937 N.pl3   1  LIG1      -0.5499999999999998
     37 O          -3.6542    0.4865   -1.0547 O.3     1  LIG1      -0.6699999999999999
     38 O          -2.4106   -1.6069    1.9402 O.3     1  LIG1      -0.6699999999999999
     39 O          -1.4605    1.3938    0.0056 O.3     1  LIG1      -0.7300000000000004
     40 O           4.6446    0.3718    3.2953 O.3     1  LIG1      -0.6799999999999997
     41 O           7.1686   -0.5498    2.4975 O.3     1  LIG1      -0.6899999999999995
     42 O          -9.9594    2.6450    2.4422 O.2     1  LIG1      -0.6400000000000006
     43 O          -5.9935    2.6364    4.7159 O.2     1  LIG1      -0.6199999999999992
     44 O           2.6058   -1.0415    1.1000 O.2     1  LIG1      -0.6600000000000001
     45 O           2.4836   -2.0266   -1.2974 O.3     1  LIG1      -0.6999999999999993
     46 O           1.1863    2.5932   -1.9761 O.2     1  LIG1      -0.6300000000000008
     47 O           1.1527    2.0008    0.6199 O.3     1  LIG1      -0.7200000000000006
     48 O           0.4003   -1.0852   -0.2336 O.3     1  LIG1      -0.5500000000000007
     49 O           3.3135    2.7388   -0.6300 O.3     1  LIG1      -0.5700000000000003
     50 O           4.8604    0.5086   -0.0427 O.3     1  LIG1      -0.5299999999999994
     51 O           2.2684    0.4356   -1.0835 O.3     1  LIG1      -0.6400000000000006
     52 P           1.9982   -0.9029   -0.2639 P.3     1  LIG1       1.2400000000000002
     53 P           1.8092    2.0503   -0.7455 P.3     1  LIG1       1.1999999999999993
     54 H         -10.3615   -1.3912   -3.4113 H       1  LIG1       0.17000000000000004
     55 H          -9.3218   -2.8173   -3.5660 H       1  LIG1       0.17000000000000004
     56 H          -8.9793   -1.3767   -4.5185 H       1  LIG1       0.17000000000000004
     57 H          -6.5619   -1.8860   -4.4315 H       1  LIG1       0.18000000000000005
     58 H          -6.8822   -3.3342   -3.4817 H       1  LIG1       0.18000000000000005
     59 H          -5.3608   -2.4504   -3.2590 H       1  LIG1       0.17000000000000004
     60 H         -10.0462   -0.1051   -1.4260 H       1  LIG1       0.15000000000000002
     61 H          -5.2219   -1.1639   -1.3387 H       1  LIG1       0.18000000000000005
     62 H          -4.5940   -0.0495    2.0997 H       1  LIG1       0.18999999999999995
     63 H          -4.5994   -1.1608    0.7179 H       1  LIG1       0.18999999999999995
     64 H           0.1964   -0.2392    1.6643 H       1  LIG1       0.18000000000000005
     65 H          -0.0610   -1.9972    1.5768 H       1  LIG1       0.17000000000000004
     66 H           5.0512    3.2052    0.2866 H       1  LIG1       0.17000000000000004
     67 H           3.6220    3.2861    1.3582 H       1  LIG1       0.17000000000000004
     68 H          10.6606   -1.2749    0.0359 H       1  LIG1       0.18000000000000005
     69 H           3.4818   -1.9708   -1.3980 H       1  LIG1       0.43000000000000005
     70 H          -3.9412    1.8121    0.5236 H       1  LIG1          0.14
     71 H          -2.0499   -1.3514   -0.0482 H       1  LIG1       0.16000000000000003
     72 H           3.3631    0.9043    1.3286 H       1  LIG1       0.18000000000000005
     73 H          -2.1843    0.9736    1.9183 H       1  LIG1       0.15000000000000002
     74 H           5.7046    1.9824    2.6783 H       1  LIG1       0.17000000000000004
     75 H           7.0644    0.9009    1.0090 H       1  LIG1       0.15000000000000002
     76 H           4.8753   -1.2318    1.0850 H       1  LIG1       0.17000000000000004
     77 H          10.0913   -3.1914   -3.8934 H       1  LIG1          0.37
     78 H           8.4562   -3.0927   -4.3309 H       1  LIG1          0.38
     79 H           6.0152   -2.9758   -3.1272 H       1  LIG1           0.4
     80 H          -2.8407    0.9243   -1.3722 H       1  LIG1       0.43000000000000005
     81 H          -2.4466   -1.0261    2.7176 H       1  LIG1       0.43999999999999995
     82 H          -0.5470    1.5912    0.3355 H       1  LIG1          0.47
     83 H           3.9443   -0.1757    2.8947 H       1  LIG1       0.43000000000000005
     84 H           7.9342   -0.8552    1.9761 H       1  LIG1       0.43000000000000005
@<TRIPOS>BOND
     1    56     1    1
     2    57     2    1
     3    78    28    1
     4    77    28    1
     5    28    22    1
     6    55     1    1
     7     1    54    1
     8     1    10    1
     9    58     2    1
    10     2    59    1
    11     2    11    1
    12    79    31    1
    13    22    17   ar
    14    22    29   ar
    15    10    11   ar
    16    10     3   ar
    17    11     4   ar
    18    31    17    1
    19    31     9    1
    20    46    53    2
    21    17    23   ar
    22    29     8   ar
    23     9    36    1
    24    60     3    1
    25     3    12   ar
    26    69    45    1
    27    80    37    1
    28    61     4    1
    29     4    13   ar
    30    45    52    1
    31    51    53    1
    32    51    52    1
    33    37    14    1
    34    53    49    1
    35    53    47    1
    36    23    36    1
    37    23    30   ar
    38    49     7    1
    39     8    30   ar
    40     8    68    1
    41    36    26    1
    42    12    13   ar
    43    12    32   ar
    44    13    35   ar
    45    52    48    1
    46    52    44    2
    47    48     6    1
    48    71    15    1
    49    50    26    1
    50    50    16    1
    51    39    82    1
    52    39    19    1
    53    66     7    1
    54    14    70    1
    55    14    19    1
    56    14     5    1
    57     7    16    1
    58     7    67    1
    59    32    18   ar
    60    26    76    1
    61    26    21    1
    62    63     5    1
    63    35     5    1
    64    35    24   ar
    65    19    15    1
    66    19    73    1
    67    15     6    1
    68    15    38    1
    69    75    21    1
    70     5    62    1
    71    16    72    1
    72    16    20    1
    73     6    65    1
    74     6    64    1
    75    18    24   ar
    76    18    25   ar
    77    21    20    1
    78    21    41    1
    79    24    33   ar
    80    38    81    1
    81    84    41    1
    82    20    74    1
    83    20    40    1
    84    42    25    2
    85    25    34   ar
    86    33    27   ar
    87    83    40    1
    88    34    27   ar
    89    27    43    2
