@<TRIPOS>MOLECULE
IMQLKJBTEOYOSI-GPIVLXJGSA-B	11095366	-4087.3854274746136
 42 42 0 0 0
SMALL
MULLIKEN NwChem

@<TRIPOS>ATOM
      1 C          -0.4945    1.4948    0.6371 C.3     1  LIG1       0.11000000000000032
      2 C           1.1167    1.2687    0.1135 C.3     1  LIG1       0.09999999999999964
      3 C          -1.4899    0.3799   -0.1281 C.3     1  LIG1       0.09999999999999964
      4 C           1.6409   -0.3011   -0.2943 C.3     1  LIG1       0.11000000000000032
      5 C          -1.1318   -1.2596   -0.0812 C.3     1  LIG1       0.11000000000000032
      6 C           0.4746   -1.5037   -0.6103 C.3     1  LIG1       0.09999999999999964
      7 O          -1.9629    2.4902    4.2992 O.3     1  LIG1      -0.8100000000000005
      8 O           0.4686    3.2359    4.0827 O.3     1  LIG1      -0.8100000000000005
      9 O          -1.3443    4.3405    2.6084 O.2     1  LIG1      -0.8100000000000005
     10 O           3.2391    3.2441   -2.7508 O.2     1  LIG1      -0.8200000000000003
     11 O           3.3578    4.1371   -0.3293 O.3     1  LIG1      -0.8000000000000007
     12 O           1.4031    4.7926   -1.8835 O.3     1  LIG1      -0.8200000000000003
     13 O          -5.5300    1.3160   -0.0791 O.3     1  LIG1      -0.8200000000000003
     14 O          -4.6110    0.2868   -2.2518 O.2     1  LIG1      -0.8000000000000007
     15 O          -4.0354    2.7159   -1.6392 O.3     1  LIG1      -0.8000000000000007
     16 O           5.2139   -1.1171   -0.3730 O.2     1  LIG1      -0.8000000000000007
     17 O           4.3832   -2.7406    1.4560 O.3     1  LIG1      -0.8200000000000003
     18 O           4.9458   -0.3270    2.0712 O.3     1  LIG1      -0.8100000000000005
     19 O          -3.2851   -4.0554    0.4205 O.2     1  LIG1      -0.8000000000000007
     20 O          -3.2639   -3.1355    2.8326 O.3     1  LIG1      -0.8100000000000005
     21 O          -1.3481   -4.6220    2.0353 O.3     1  LIG1      -0.8200000000000003
     22 O           1.3581   -4.4700   -2.5754 O.3     1  LIG1      -0.8000000000000007
     23 O           1.8896   -2.5959   -4.2726 O.2     1  LIG1      -0.8100000000000005
     24 O          -0.5068   -3.4462   -4.0387 O.3     1  LIG1      -0.8100000000000005
     25 O          -0.5943    1.6894    2.1066 O.3     1  LIG1      -0.6799999999999997
     26 O           1.4302    2.2207   -1.0203 O.3     1  LIG1      -0.6999999999999993
     27 O          -2.9503    0.6996   -0.0574 O.3     1  LIG1      -0.6899999999999995
     28 O           2.6490   -0.7979    0.7142 O.3     1  LIG1      -0.6899999999999995
     29 O          -1.4598   -2.0540    1.1307 O.3     1  LIG1      -0.6899999999999995
     30 O           0.4867   -1.8502   -2.0833 O.3     1  LIG1      -0.6999999999999993
     31 P          -0.8763    3.0297    3.3065 P.3     1  LIG1       0.8800000000000008
     32 P           2.4209    3.6703   -1.4835 P.3     1  LIG1       0.8900000000000006
     33 P          -4.3239    1.2846   -1.0854 P.3     1  LIG1       0.8699999999999992
     34 P           4.3891   -1.2599    0.9410 P.3     1  LIG1       0.8800000000000008
     35 P          -2.3965   -3.5453    1.5929 P.3     1  LIG1       0.9000000000000004
     36 P           0.8332   -3.1787   -3.2717 P.3     1  LIG1       0.8800000000000008
     37 H          -0.7811    2.4356    0.1566 H       1  LIG1          0.13
     38 H           1.7193    1.5373    0.9842 H       1  LIG1          0.14
     39 H          -1.1501    0.5706   -1.1600 H       1  LIG1          0.13
     40 H           2.1394   -0.1654   -1.2565 H       1  LIG1          0.14
     41 H          -1.7279   -1.6551   -0.9097 H       1  LIG1          0.13
     42 H           0.8153   -2.3683   -0.0359 H       1  LIG1           0.13
@<TRIPOS>BOND
     1    23    36    2
     2    24    36    1
     3    36    22    1
     4    36    30    1
     5    10    32    2
     6    14    33    2
     7    30     6    1
     8    12    32    1
     9    15    33    1
    10    32    26    1
    11    32    11    1
    12    40     4    1
    13    39     3    1
    14    33    13    1
    15    33    27    1
    16    26     2    1
    17    41     5    1
    18     6     4    1
    19     6     5    1
    20     6    42    1
    21    16    34    2
    22     4     2    1
    23     4    28    1
    24     3     5    1
    25     3    27    1
    26     3     1    1
    27     5    29    1
    28     2     1    1
    29     2    38    1
    30    37     1    1
    31    19    35    2
    32     1    25    1
    33    28    34    1
    34    34    17    1
    35    34    18    1
    36    29    35    1
    37    35    21    1
    38    35    20    1
    39    25    31    1
    40     9    31    2
    41    31     8    1
    42    31     7    1
