@<TRIPOS>MOLECULE
IMZRQZICOZIGNP-UHFFFAOYSA-L	11095365	-3206.975898881006
 73 72 0 0 0
SMALL
MULLIKEN NwChem

@<TRIPOS>ATOM
      1 C           6.1706   -1.7588    0.0417 C.3     1  UNK1      -0.28000000000000025
      2 C          -4.4567   -2.8094    2.0562 C.3     1  UNK1      -0.2699999999999996
      3 C           6.2044   -0.2253   -0.0508 C.3     1  UNK1       -0.34999999999999964
      4 C          -4.7152   -3.3573    0.6414 C.3     1  UNK1       -0.34999999999999964
      5 CA          3.2901    3.4550    0.8215 C.3     2  GLY2       -0.20000000000000018
      6 CA         -5.4921    2.0684   -0.9610 C.3     2  GLY2       -0.28000000000000025
      7 C           2.4841   -0.6617   -1.7880 C.3     1  UNK1       -0.4299999999999997
      8 C          -1.6353   -0.0029   -0.9200 C.3     1  UNK1       -0.4500000000000002
      9 C           6.1905   -2.2468    1.4967 C.3     1  UNK1       -0.08000000000000007
     10 C          -5.3794   -1.6695    2.5303 C.3     1  UNK1       -0.040000000000000036
     11 C           3.4837    0.1846   -0.9899 C.3     1  UNK1           0.0
     12 C          -2.9330   -0.6969   -1.3370 C.3     1  UNK1       0.019999999999999574
     13 C           5.8649    0.2877   -1.4895 C.2     1  UNK1       0.45999999999999996
     14 C          -4.0750   -2.6098   -0.5536 C.2     1  UNK1       0.5199999999999996
     15 C           4.2336    4.1116    1.8005 C.2     2  GLY2       0.5899999999999999
     16 C          -5.6693    2.8880    0.3294 C.2     2  GLY2       0.5899999999999999
     17 C           2.8091    1.4741   -0.4627 C.3     1  UNK1       0.2699999999999996
     18 C          -4.0439    0.2957   -1.6224 C.2     1  UNK1       0.5199999999999996
     19 C           6.4300   -3.7662    1.6234 C.2     1  UNK1       0.6100000000000003
     20 C          -6.7668   -2.1851    2.9063 C.2     1  UNK1       0.5999999999999996
     21 N           4.9713   -1.9011    2.2700 N.3     1  UNK1      -0.7999999999999998
     22 N          -5.5590   -0.6177    1.5216 N.3     1  UNK1      -0.8399999999999999
     23 N           3.7255    2.1280    0.4584 N.3     2  GLY2      -0.6100000000000003
     24 N          -4.2635    1.3098   -0.8644 N.2     2  GLY2      -0.5300000000000002
     25 N           4.5946    0.4982   -1.8467 N.am    1  UNK1      -0.5899999999999999
     26 N          -3.4211   -1.4849   -0.2189 N.am    1  UNK1      -0.5999999999999996
     27 O           6.8522    0.4607   -2.2370 O.2     1  UNK1      -0.6999999999999993
     28 O          -4.2445   -3.1110   -1.6855 O.2     1  UNK1      -0.6899999999999995
     29 O           5.3217    3.7155    2.1521 O.2     2  GLY2      -0.5099999999999998
     30 OXT         3.7197    5.2952    2.2556 O.3     2  GLY2      -0.5899999999999999
     31 O          -6.5637    3.6905    0.4897 O.2     2  GLY2      -0.5299999999999994
     32 OXT        -4.7490    2.6049    1.2590 O.3     2  GLY2      -0.5999999999999996
     33 O           1.6018    1.2140    0.2580 O.3     1  UNK1      -0.6899999999999995
     34 O          -4.8320   -0.0833   -2.6537 O.2     1  UNK1      -0.6199999999999992
     35 O           7.2598   -4.3732    0.9823 O.2     1  UNK1      -0.5399999999999991
     36 O           5.6559   -4.3547    2.5541 O.3     1  UNK1      -0.6099999999999994
     37 O          -7.2042   -3.3126    2.7958 O.2     1  UNK1      -0.5199999999999996
     38 O          -7.5370   -1.1869    3.4338 O.3     1  UNK1      -0.5999999999999996
     39 S           2.0849    0.2158   -3.3794 S.3     1  UNK1      -0.030000000000001137
     40 S          -0.9624    1.1810   -2.1807 S.3     1  UNK1      -0.05000000000000071
     41 S           0.0158   -0.0980   -3.5695 S.3     1  UNK1      -0.10999999999999943
     42 H           5.2644   -2.1532   -0.4408 H       1  UNK1       0.16000000000000003
     43 H           7.0186   -2.1900   -0.4987 H       1  UNK1       0.15000000000000002
     44 H          -3.4281   -2.4377    2.0984 H       1  UNK1          0.14
     45 H          -4.5508   -3.6222    2.7884 H       1  UNK1          0.14
     46 H           7.2194    0.1217    0.1724 H       1  UNK1          0.13
     47 H           5.5380    0.2081    0.7043 H       1  UNK1          0.13
     48 H          -4.3560   -4.3933    0.5810 H       1  UNK1          0.14
     49 H          -5.7924   -3.4111    0.4452 H       1  UNK1          0.14
     50 HA1         3.1750    4.1583   -0.0308 H       2  GLY2       0.18000000000000005
     51 HA2         2.2985    3.3879    1.2827 H       2  GLY2       0.19999999999999996
     52 HA1        -6.3954    1.4371   -1.0311 H       2  GLY2       0.20999999999999996
     53 HA2        -5.5144    2.7751   -1.8045 H       2  GLY2       0.20999999999999996
     54 H           1.5510   -0.8329   -1.2445 H       1  UNK1       0.19999999999999996
     55 H           2.9413   -1.6219   -2.0421 H       1  UNK1       0.18999999999999995
     56 H          -0.8763   -0.7532   -0.6865 H       1  UNK1       0.20999999999999996
     57 H          -1.8058    0.6042   -0.0249 H       1  UNK1       0.20999999999999996
     58 H           7.0445   -1.7809    2.0084 H       1  UNK1       0.19999999999999996
     59 H          -4.9567   -1.2804    3.4771 H       1  UNK1       0.16000000000000003
     60 H           3.7044   -0.4086   -0.0796 H       1  UNK1          0.13
     61 H          -2.7723   -1.2965   -2.2434 H       1  UNK1          0.13
     62 H           2.5768    2.1174   -1.3302 H       1  UNK1          0.12
     63 H           5.0578   -0.9734    2.6775 H       1  UNK1          0.36
     64 H           4.1763   -1.8374    1.6324 H       1  UNK1          0.36
     65 H          -5.6355    0.2922    1.9683 H       1  UNK1       0.31000000000000005
     66 H          -4.7227   -0.6338    0.9152 H       1  UNK1          0.37
     67 H           4.6345    2.1608   -0.0009 H       2  GLY2       0.32999999999999996
     68 HXT         4.4030    5.6538    2.8511 H       2  GLY2       0.44999999999999996
     69 HXT        -4.1426    1.9526    0.7970 H       2  GLY2       0.45999999999999996
     70 H           0.8735    1.3260   -0.3782 H       1  UNK1       0.44999999999999996
     71 H          -5.6281    0.4734   -2.6798 H       1  UNK1       0.45999999999999996
     72 H           5.0926   -3.6023    2.8884 H       1  UNK1       0.44999999999999996
     73 H          -8.4072   -1.5975    3.5899 H       1  UNK1       0.43999999999999995
@<TRIPOS>BOND
     1    41    39    1
     2    41    40    1
     3    39     7    1
     4    71    34    1
     5    34    18    1
     6    61    12    1
     7    27    13    2
     8    40     8    1
     9    55     7    1
    10    25    13   am
    11    25    11    1
    12    53     6    1
    13     7    54    1
    14     7    11    1
    15    28    14    2
    16    18    12    1
    17    18    24    2
    18    13     3    1
    19    12     8    1
    20    12    26    1
    21    62    17    1
    22    52     6    1
    23    11    17    1
    24    11    60    1
    25     6    24    1
    26     6    16    1
    27     8    56    1
    28     8    57    1
    29    14    26   am
    30    14     4    1
    31    43     1    1
    32    17    33    1
    33    17    23    1
    34    42     1    1
    35    70    33    1
    36     3     1    1
    37     3    46    1
    38     3    47    1
    39    50     5    1
    40    67    23    1
    41     1     9    1
    42    16    31    2
    43    16    32    1
    44    49     4    1
    45    23     5    1
    46    48     4    1
    47     4     2    1
    48    69    32    1
    49     5    51    1
    50     5    15    1
    51    66    22    1
    52    35    19    2
    53     9    19    1
    54     9    58    1
    55     9    21    1
    56    22    65    1
    57    22    10    1
    58    19    36    1
    59    64    21    1
    60    15    29    2
    61    15    30    1
    62     2    44    1
    63     2    10    1
    64     2    45    1
    65    30    68    1
    66    21    63    1
    67    10    20    1
    68    10    59    1
    69    36    72    1
    70    37    20    2
    71    20    38    1
    72    38    73    1
