@<TRIPOS>MOLECULE
INAPMGSXUVUWAF-KXXVROSKSA-L	11095363	-1253.8113973810441
 27 27 0 0 0
SMALL
MULLIKEN NwChem

@<TRIPOS>ATOM
      1 C          -1.6097   -1.7601   -0.5457 C.3     1  LIG1       0.09999999999999964
      2 C          -1.9890   -0.3453   -1.0651 C.3     1  LIG1       0.07000000000000028
      3 C          -1.3182   -1.7133    0.9552 C.3     1  LIG1       0.1200000000000001
      4 C          -1.0803    0.7927   -0.5050 C.3     1  LIG1       0.16000000000000014
      5 C          -0.0390   -0.8925    1.2236 C.3     1  LIG1       0.1200000000000001
      6 C           0.1629    0.2089    0.1737 C.3     1  LIG1       0.019999999999999574
      7 O          -2.6521   -2.6850   -0.8783 O.3     1  LIG1      -0.6999999999999993
      8 O          -3.3986   -0.1485   -0.7705 O.3     1  LIG1      -0.6999999999999993
      9 O          -2.4570   -1.0905    1.6315 O.3     1  LIG1      -0.6899999999999995
     10 O          -0.6770    1.6590   -1.5419 O.3     1  LIG1        -0.75
     11 O           1.0871   -1.7268    1.2525 O.3     1  LIG1      -0.7400000000000002
     12 O           2.0519    1.5518   -1.5266 O.2     1  LIG1      -0.7799999999999994
     13 O           3.2872    2.3365    0.6531 O.3     1  LIG1      -0.7200000000000006
     14 O           2.9693   -0.2148    0.1538 O.3     1  LIG1      -0.7799999999999994
     15 O           0.9481    1.2260    0.7323 O.3     1  LIG1      -0.6699999999999999
     16 P           2.5093    1.2581   -0.0726 P.3     1  LIG1           1.0
     17 H          -0.6924   -2.1075   -1.0344 H       1  LIG1       0.15000000000000002
     18 H          -1.9148   -0.3214   -2.1551 H       1  LIG1       0.15000000000000002
     19 H          -1.2030   -2.7309    1.3497 H       1  LIG1          0.14
     20 H          -1.6838    1.3499    0.2404 H       1  LIG1          0.12
     21 H          -0.1816   -0.3841    2.2094 H       1  LIG1       0.10999999999999999
     22 H           0.7038   -0.2856   -0.6457 H       1  LIG1          0.14
     23 H          -3.4383   -2.1042   -0.8913 H       1  LIG1       0.41000000000000003
     24 H          -3.4166   -0.2092    0.2064 H       1  LIG1       0.43000000000000005
     25 H          -2.0604   -0.4128    2.2040 H       1  LIG1       0.43999999999999995
     26 H           0.3412    1.7039   -1.5350 H       1  LIG1       0.43000000000000005
     27 H           1.8733   -1.1644    0.8775 H       1  LIG1       0.43999999999999995
@<TRIPOS>BOND
     1    18     2    1
     2    10    26    1
     3    10     4    1
     4    12    16    2
     5     2     8    1
     6     2     1    1
     7     2     4    1
     8    17     1    1
     9    23     7    1
    10     7     1    1
    11     8    24    1
    12    22     6    1
    13     1     3    1
    14     4     6    1
    15     4    20    1
    16    16    14    1
    17    16    13    1
    18    16    15    1
    19     6    15    1
    20     6     5    1
    21    27    11    1
    22     3     5    1
    23     3    19    1
    24     3     9    1
    25     5    11    1
    26     5    21    1
    27     9    25    1
