@<TRIPOS>MOLECULE
INAPMGSXUVUWAF-PTQMNWPWSA-L	11095362	-1253.805279521805
 27 27 0 0 0
SMALL
MULLIKEN NwChem

@<TRIPOS>ATOM
      1 C          -2.7347   -0.2243   -0.3431 C.3     1  LIG1       0.08999999999999986
      2 C          -2.0291    0.7891    0.6264 C.3     1  LIG1       0.11000000000000032
      3 C          -1.7638   -1.2498   -0.9781 C.3     1  LIG1       0.11000000000000032
      4 C          -0.8549    0.0704    1.3003 C.3     1  LIG1       0.1200000000000001
      5 C          -0.3848   -0.6310   -1.1436 C.3     1  LIG1       0.15000000000000036
      6 C           0.1916   -0.2205    0.2059 C.3     1  LIG1           0.0
      7 O          -3.8221   -0.8965    0.3288 O.3     1  LIG1      -0.6799999999999997
      8 O          -1.5954    1.9452   -0.0793 O.3     1  LIG1      -0.7100000000000009
      9 O          -2.2601   -1.7127   -2.2424 O.3     1  LIG1      -0.6999999999999993
     10 O          -0.2733    0.7815    2.3619 O.3     1  LIG1      -0.7400000000000002
     11 O           0.4978   -1.5306   -1.8036 O.3     1  LIG1        -0.75
     12 O           2.4570    0.1995    1.9053 O.3     1  LIG1      -0.7799999999999994
     13 O           3.4615    1.7393    0.0298 O.3     1  LIG1      -0.7200000000000006
     14 O           2.8331   -0.7491   -0.5026 O.2     1  LIG1      -0.7799999999999994
     15 O           0.9850    0.9279   -0.0088 O.3     1  LIG1      -0.6699999999999999
     16 P           2.6636    0.5067    0.4001 P.3     1  LIG1           1.0
     17 H          -3.1996    0.3528   -1.1474 H       1  LIG1       0.15000000000000002
     18 H          -2.7902    1.0909    1.3651 H       1  LIG1          0.13
     19 H          -1.6795   -2.1146   -0.2929 H       1  LIG1          0.13
     20 H          -1.2536   -0.9037    1.6707 H       1  LIG1          0.12
     21 H          -0.5110    0.2828   -1.7449 H       1  LIG1          0.12
     22 H           0.8037   -1.0526    0.5635 H       1  LIG1       0.15000000000000002
     23 H          -3.4022   -1.3926    1.0503 H       1  LIG1       0.43000000000000005
     24 H          -0.6093    1.9357   -0.0482 H       1  LIG1       0.43000000000000005
     25 H          -1.4419   -2.0012   -2.6879 H       1  LIG1       0.42000000000000004
     26 H           0.7268    0.6752    2.2598 H       1  LIG1       0.43000000000000005
     27 H           1.4194   -1.2819   -1.4512 H       1  LIG1       0.43000000000000005
@<TRIPOS>BOND
     1    25     9    1
     2     9     3    1
     3    11    27    1
     4    11     5    1
     5    21     5    1
     6    17     1    1
     7     5     3    1
     8     5     6    1
     9     3     1    1
    10     3    19    1
    11    14    16    2
    12     1     7    1
    13     1     2    1
    14     8    24    1
    15     8     2    1
    16    15     6    1
    17    15    16    1
    18    13    16    1
    19     6    22    1
    20     6     4    1
    21     7    23    1
    22    16    12    1
    23     2     4    1
    24     2    18    1
    25     4    20    1
    26     4    10    1
    27    26    10    1
