@<TRIPOS>MOLECULE
INAPMGSXUVUWAF-XCMZKKERSA-L	11095360	-1253.8106719436735
 27 27 0 0 0
SMALL
MULLIKEN NwChem

@<TRIPOS>ATOM
      1 C          -2.2741   -1.0170   -0.0611 C.3     1  LIG1       0.07000000000000028
      2 C          -1.8424    0.0817   -1.0492 C.3     1  LIG1       0.1299999999999999
      3 C          -1.1929   -2.0436    0.2772 C.3     1  LIG1       0.1200000000000001
      4 C          -0.5666    0.7894   -0.5839 C.3     1  LIG1       0.09999999999999964
      5 C           0.1217   -1.3496    0.6074 C.3     1  LIG1       0.05999999999999961
      6 C           0.5171   -0.3130   -0.4606 C.3     1  LIG1       0.13999999999999968
      7 O          -3.4504   -1.6926   -0.5714 O.3     1  LIG1      -0.6799999999999997
      8 O          -2.9445    0.9899   -1.1924 O.3     1  LIG1      -0.6999999999999993
      9 O          -1.0208   -2.9146   -0.8571 O.3     1  LIG1      -0.6999999999999993
     10 O          -0.1862    1.7828   -1.4990 O.3     1  LIG1        -0.75
     11 O           1.1566   -2.3527    0.6214 O.3     1  LIG1      -0.7100000000000009
     12 O           1.1437    1.0956    2.1096 O.3     1  LIG1      -0.7699999999999996
     13 O           3.6003    1.2948    1.2220 O.3     1  LIG1      -0.7400000000000002
     14 O           1.6735    2.6496    0.0982 O.2     1  LIG1      -0.7899999999999991
     15 O           1.8346    0.0863   -0.2060 O.3     1  LIG1      -0.6999999999999993
     16 P           2.1115    1.4427    0.9715 P.3     1  LIG1       1.0199999999999996
     17 H          -2.5930   -0.5176    0.8610 H       1  LIG1       0.16000000000000003
     18 H          -1.6347   -0.3915   -2.0259 H       1  LIG1          0.12
     19 H          -1.5412   -2.6552    1.1280 H       1  LIG1          0.14
     20 H          -0.7340    1.2152    0.4179 H       1  LIG1       0.10999999999999999
     21 H           0.0835   -0.8229    1.5691 H       1  LIG1       0.15000000000000002
     22 H           0.5350   -0.8348   -1.4380 H       1  LIG1       0.10999999999999999
     23 H          -3.0761   -2.3100   -1.2249 H       1  LIG1       0.43000000000000005
     24 H          -3.7091    0.3936   -1.2755 H       1  LIG1       0.42000000000000004
     25 H          -0.0558   -3.0782   -0.8397 H       1  LIG1       0.43000000000000005
     26 H           0.5890    2.2289   -0.9889 H       1  LIG1       0.43000000000000005
     27 H           1.9356   -1.7667    0.4527 H       1  LIG1       0.42000000000000004
@<TRIPOS>BOND
     1    18     2    1
     2    10    26    1
     3    10     4    1
     4    22     6    1
     5    24     8    1
     6    23     7    1
     7     8     2    1
     8     2     4    1
     9     2     1    1
    10     9    25    1
    11     9     3    1
    12     4     6    1
    13     4    20    1
    14     7     1    1
    15     6    15    1
    16     6     5    1
    17    15    16    1
    18     1     3    1
    19     1    17    1
    20    14    16    2
    21     3     5    1
    22     3    19    1
    23    27    11    1
    24     5    11    1
    25     5    21    1
    26    16    13    1
    27    16    12    1
