@<TRIPOS>MOLECULE
INAPMGSXUVUWAF-UOTPTPDRSA-L	6044684	-1253.8095965261714
 27 27 0 0 0
SMALL
MULLIKEN NwChem

@<TRIPOS>ATOM
      1 C           1.6405    1.8686   -0.9649 C.3     1  LIG1       0.07000000000000028
      2 C           2.3240    0.5602   -0.5148 C.3     1  LIG1       0.1200000000000001
      3 C           0.1735    1.8775   -0.4430 C.3     1  LIG1       0.16999999999999993
      4 C           1.5805   -0.6654   -1.0965 C.3     1  LIG1       0.08999999999999986
      5 C          -0.5966    0.6720   -1.0320 C.3     1  LIG1       0.04999999999999982
      6 C           0.0755   -0.6923   -0.7467 C.3     1  LIG1       0.1200000000000001
      7 O           1.7507    2.0588   -2.3908 O.3     1  LIG1      -0.7200000000000006
      8 O           2.4162    0.5189    0.8969 O.3     1  LIG1      -0.7300000000000004
      9 O           0.1523    1.8439    0.9323 O.3     1  LIG1      -0.7699999999999996
     10 O           2.1930   -1.8805   -0.6711 O.3     1  LIG1      -0.6899999999999995
     11 O          -0.7009    0.8315   -2.4896 O.3     1  LIG1      -0.6899999999999995
     12 O          -1.6813    0.2259    1.9443 O.3     1  LIG1      -0.8000000000000007
     13 O          -2.5592   -1.4716    0.1841 O.2     1  LIG1      -0.7400000000000002
     14 O          -1.4190   -2.3034    2.4058 O.3     1  LIG1      -0.6899999999999995
     15 O          -0.0259   -1.1325    0.5899 O.3     1  LIG1      -0.6500000000000004
     16 P          -1.5709   -1.2761    1.3170 P.3     1  LIG1       1.0700000000000003
     17 H           2.1673    2.7044   -0.4849 H       1  LIG1       0.10999999999999999
     18 H           3.3484    0.5266   -0.9236 H       1  LIG1       0.10999999999999999
     19 H          -0.3080    2.7910   -0.8825 H       1  LIG1       0.06000000000000005
     20 H           1.6803   -0.6251   -2.1898 H       1  LIG1          0.14
     21 H          -1.6069    0.6523   -0.6195 H       1  LIG1          0.14
     22 H          -0.4223   -1.4357   -1.4003 H       1  LIG1          0.12
     23 H           0.9547    1.6242   -2.7541 H       1  LIG1       0.43000000000000005
     24 H           1.5315    0.9186    1.1831 H       1  LIG1       0.41000000000000003
     25 H          -0.9729    0.8560    1.5591 H       1  LIG1       0.43999999999999995
     26 H           1.8714   -1.9473    0.2493 H       1  LIG1       0.41000000000000003
     27 H          -1.0350   -0.0213   -2.8129 H       1  LIG1       0.43000000000000005
@<TRIPOS>BOND
     1    27    11    1
     2    23     7    1
     3    11     5    1
     4     7     1    1
     5    20     4    1
     6    22     6    1
     7     4     6    1
     8     4    10    1
     9     4     2    1
    10     5     6    1
    11     5    21    1
    12     5     3    1
    13     1     2    1
    14     1    17    1
    15     1     3    1
    16    18     2    1
    17    19     3    1
    18     6    15    1
    19    10    26    1
    20     2     8    1
    21     3     9    1
    22    13    16    2
    23    15    16    1
    24     8    24    1
    25    16    12    1
    26    16    14    1
    27    25    12    1
