@<TRIPOS>MOLECULE
INAPMGSXUVUWAF-CNWJWELYSA-L	11095364	-1253.8008858408168
 27 27 0 0 0
SMALL
MULLIKEN NwChem

@<TRIPOS>ATOM
      1 C          -2.4479    0.9122   -0.2184 C.3     1  LIG1       0.11000000000000032
      2 C          -1.4474    1.9941   -0.6947 C.3     1  LIG1       0.09999999999999964
      3 C          -2.0151   -0.4514   -0.7771 C.3     1  LIG1       0.08000000000000007
      4 C          -0.0449    1.4548   -1.0023 C.3     1  LIG1       0.09999999999999964
      5 C          -0.6683   -0.8271   -0.0689 C.3     1  LIG1       0.08000000000000007
      6 C           0.3530    0.3744    0.0059 C.3     1  LIG1       0.13999999999999968
      7 O          -2.4947    0.8875    1.1962 O.3     1  LIG1      -0.7400000000000002
      8 O          -1.8836    2.6736   -1.9036 O.3     1  LIG1      -0.6899999999999995
      9 O          -2.9512   -1.4730   -0.4654 O.3     1  LIG1      -0.7200000000000006
     10 O           0.8810    2.5540   -1.0085 O.3     1  LIG1      -0.6899999999999995
     11 O          -1.0444   -1.2809    1.2037 O.3     1  LIG1      -0.7699999999999996
     12 O           2.1836   -2.5387   -0.0959 O.2     1  LIG1      -0.7200000000000006
     13 O           3.8213   -0.7727    0.9720 O.3     1  LIG1      -0.6999999999999993
     14 O           1.5365   -1.2041    2.0394 O.3     1  LIG1      -0.7799999999999994
     15 O           1.6896   -0.0016   -0.2500 O.3     1  LIG1      -0.6400000000000006
     16 P           2.4300   -1.2512    0.6557 P.3     1  LIG1       1.0600000000000005
     17 H          -3.4558    1.1778   -0.6042 H       1  LIG1       0.10999999999999999
     18 H          -1.3499    2.7245    0.1220 H       1  LIG1          0.13
     19 H          -1.9178   -0.3811   -1.8707 H       1  LIG1          0.13
     20 H          -0.0589    0.9971   -2.0050 H       1  LIG1          0.13
     21 H          -0.1647   -1.6146   -0.6537 H       1  LIG1       0.09999999999999998
     22 H           0.2649    0.7989    1.0174 H       1  LIG1       0.10999999999999999
     23 H          -1.9475    0.0645    1.4568 H       1  LIG1       0.41000000000000003
     24 H          -2.7889    2.9703   -1.7205 H       1  LIG1       0.43000000000000005
     25 H          -2.5304   -1.7808    0.3898 H       1  LIG1          0.39
     26 H           0.4676    3.1986   -1.6061 H       1  LIG1       0.42000000000000004
     27 H           0.5737   -1.3926    1.8361 H       1  LIG1       0.42000000000000004
@<TRIPOS>BOND
     1    20     4    1
     2     8    24    1
     3     8     2    1
     4    19     3    1
     5    26    10    1
     6    10     4    1
     7     4     2    1
     8     4     6    1
     9     3     9    1
    10     3     1    1
    11     3     5    1
    12     2     1    1
    13     2    18    1
    14    21     5    1
    15    17     1    1
    16     9    25    1
    17    15     6    1
    18    15    16    1
    19     1     7    1
    20    12    16    2
    21     5     6    1
    22     5    11    1
    23     6    22    1
    24    16    13    1
    25    16    14    1
    26     7    23    1
    27    27    14    1
