@<TRIPOS>MOLECULE
INAPMGSXUVUWAF-QWBQGLJISA-L	11095361	-1253.7958804935708
 27 27 0 0 0
SMALL
MULLIKEN NwChem

@<TRIPOS>ATOM
      1 C          -1.8624    0.8794    1.8082 C.3     1  LIG1       0.13999999999999968
      2 C          -1.5425   -0.6311    1.9885 C.3     1  LIG1       0.08999999999999986
      3 C          -1.1394    1.4533    0.6057 C.3     1  LIG1       0.08000000000000007
      4 C          -0.9223   -1.3060    0.7431 C.3     1  LIG1       0.11000000000000032
      5 C           0.3363    0.9517    0.5858 C.3     1  LIG1       0.17999999999999972
      6 C           0.3135   -0.5312    0.1196 C.3     1  LIG1       0.07000000000000028
      7 O          -3.2896    1.0806    1.7351 O.3     1  LIG1      -0.6999999999999993
      8 O          -0.6980   -0.8459    3.1383 O.3     1  LIG1      -0.6899999999999995
      9 O          -1.1096    2.8741    0.6260 O.3     1  LIG1      -0.7400000000000002
     10 O          -1.9502   -1.4491   -0.2272 O.3     1  LIG1      -0.6999999999999993
     11 O           1.1066    1.8355   -0.0923 O.3     1  LIG1      -0.7899999999999991
     12 O           1.0134   -1.2378   -3.6259 O.2     1  LIG1      -0.6999999999999993
     13 O           1.9448    0.8092   -2.3698 O.3     1  LIG1      -0.7699999999999996
     14 O           2.5666   -1.5766   -1.5257 O.3     1  LIG1      -0.7100000000000009
     15 O           0.1577   -0.6322   -1.2874 O.3     1  LIG1      -0.6500000000000004
     16 P           1.5507   -0.7695   -2.3006 P.3     1  LIG1       1.0199999999999996
     17 H          -1.4805    1.3946    2.7053 H       1  LIG1          0.12
     18 H          -2.4807   -1.1488    2.2152 H       1  LIG1       0.15000000000000002
     19 H          -1.6374    1.0939   -0.3084 H       1  LIG1       0.09999999999999998
     20 H          -0.5819   -2.3039    1.0716 H       1  LIG1          0.12
     21 H           0.6587    0.8933    1.6804 H       1  LIG1       0.040000000000000036
     22 H           1.2479   -1.0263    0.4052 H       1  LIG1          0.13
     23 H          -3.3746    1.9208    1.2561 H       1  LIG1       0.42000000000000004
     24 H           0.1285   -0.3754    2.9286 H       1  LIG1       0.43000000000000005
     25 H          -0.1806    2.9709    0.2373 H       1  LIG1          0.39
     26 H          -1.4595   -1.2832   -1.0673 H       1  LIG1       0.43000000000000005
     27 H           1.6398    1.2532   -1.5030 H       1  LIG1       0.43000000000000005
@<TRIPOS>BOND
     1    12    16    2
     2    13    16    1
     3    13    27    1
     4    16    14    1
     5    16    15    1
     6    15     6    1
     7    26    10    1
     8    19     3    1
     9    10     4    1
    10    11     5    1
    11     6    22    1
    12     6     5    1
    13     6     4    1
    14    25     9    1
    15     5     3    1
    16     5    21    1
    17     3     9    1
    18     3     1    1
    19     4    20    1
    20     4     2    1
    21    23     7    1
    22     7     1    1
    23     1     2    1
    24     1    17    1
    25     2    18    1
    26     2     8    1
    27    24     8    1
