@<TRIPOS>MOLECULE
IPCSVZSSVZVIGE-UHFFFAOYSA-M	6044686	-778.6154159469738
 49 48 0 0 0
SMALL
MULLIKEN NwChem

@<TRIPOS>ATOM
      1 C           3.5981    2.2915   -6.3453 C.3     1  LIG1      -0.45999999999999996
      2 C           3.6725    1.0191   -5.4930 C.3     1  LIG1      -0.2599999999999998
      3 C           3.9480    1.2812   -4.0028 C.3     1  LIG1      -0.2599999999999998
      4 C           2.9043    2.1566   -3.2860 C.3     1  LIG1      -0.2699999999999996
      5 C           1.4572    1.6398   -3.3618 C.3     1  LIG1      -0.2699999999999996
      6 C           1.2466    0.2109   -2.8311 C.3     1  LIG1      -0.2699999999999996
      7 C           1.6932   -0.0176   -1.3766 C.3     1  LIG1      -0.2699999999999996
      8 C           1.0271    0.8995   -0.3361 C.3     1  LIG1      -0.2699999999999996
      9 C          -0.5108    0.8519   -0.3151 C.3     1  LIG1      -0.2699999999999996
     10 C          -1.1159   -0.5481   -0.1116 C.3     1  LIG1      -0.2699999999999996
     11 C          -0.6506   -1.2828    1.1584 C.3     1  LIG1      -0.2699999999999996
     12 C          -0.8999   -0.5341    2.4784 C.3     1  LIG1      -0.2699999999999996
     13 C          -2.3671   -0.1531    2.7437 C.3     1  LIG1      -0.2599999999999998
     14 C          -3.3520   -1.3383    2.7589 C.3     1  LIG1        -0.25
     15 C          -2.9053   -2.4936    3.6706 C.3     1  LIG1       -0.33999999999999986
     16 C          -2.5315   -1.9618    5.1014 C.2     1  LIG1       0.5300000000000002
     17 O          -3.4656   -1.3634    5.6949 O.co2   1  LIG1      -0.6899999999999995
     18 O          -1.3408   -2.1515    5.4645 O.co2   1  LIG1      -0.6799999999999997
     19 H           2.7558    2.9264   -6.0480 H       1  LIG1       0.15000000000000002
     20 H           3.4720    2.0517   -7.4077 H       1  LIG1          0.14
     21 H           4.5140    2.8879   -6.2427 H       1  LIG1          0.14
     22 H           2.7372    0.4543   -5.6018 H       1  LIG1          0.14
     23 H           4.4655    0.3681   -5.8862 H       1  LIG1          0.13
     24 H           4.0279    0.3166   -3.4847 H       1  LIG1          0.14
     25 H           4.9333    1.7604   -3.9044 H       1  LIG1          0.13
     26 H           3.1995    2.2530   -2.2332 H       1  LIG1          0.14
     27 H           2.9362    3.1744   -3.6982 H       1  LIG1          0.13
     28 H           0.8129    2.3313   -2.8037 H       1  LIG1          0.14
     29 H           1.1089    1.6830   -4.4033 H       1  LIG1          0.13
     30 H           0.1822   -0.0396   -2.9260 H       1  LIG1          0.14
     31 H           1.7788   -0.5006   -3.4780 H       1  LIG1          0.13
     32 H           1.4922   -1.0638   -1.1142 H       1  LIG1          0.14
     33 H           2.7834    0.1029   -1.3062 H       1  LIG1          0.13
     34 H           1.4073    0.6278    0.6564 H       1  LIG1          0.14
     35 H           1.3471    1.9377   -0.5055 H       1  LIG1          0.13
     36 H          -0.8646    1.5140    0.4850 H       1  LIG1          0.13
     37 H          -0.9024    1.2761   -1.2515 H       1  LIG1          0.13
     38 H          -2.2087   -0.4486   -0.0863 H       1  LIG1          0.13
     39 H          -0.8923   -1.1727   -0.9895 H       1  LIG1          0.13
     40 H          -1.1599   -2.2538    1.1971 H       1  LIG1          0.13
     41 H           0.4223   -1.5127    1.0754 H       1  LIG1          0.13
     42 H          -0.5624   -1.1534    3.3181 H       1  LIG1          0.13
     43 H          -0.2857    0.3797    2.4998 H       1  LIG1          0.13
     44 H          -2.4176    0.3235    3.7293 H       1  LIG1          0.12
     45 H          -2.7077    0.5963    2.0103 H       1  LIG1          0.13
     46 H          -4.3127   -0.9676    3.1366 H       1  LIG1          0.12
     47 H          -3.5240   -1.6992    1.7305 H       1  LIG1          0.13
     48 H          -3.7349   -3.2117    3.7554 H       1  LIG1          0.12
     49 H          -2.0479   -3.0267    3.2399 H       1  LIG1       0.10999999999999999
@<TRIPOS>BOND
     1    20     1    1
     2     1    21    1
     3     1    19    1
     4     1     2    1
     5    23     2    1
     6    22     2    1
     7     2     3    1
     8    29     5    1
     9     3    25    1
    10     3    24    1
    11     3     4    1
    12    27     4    1
    13    31     6    1
    14     5     4    1
    15     5     6    1
    16     5    28    1
    17     4    26    1
    18    30     6    1
    19     6     7    1
    20     7    33    1
    21     7    32    1
    22     7     8    1
    23    37     9    1
    24    39    10    1
    25    35     8    1
    26     8     9    1
    27     8    34    1
    28     9    10    1
    29     9    36    1
    30    10    38    1
    31    10    11    1
    32    41    11    1
    33    11    40    1
    34    11    12    1
    35    47    14    1
    36    45    13    1
    37    12    43    1
    38    12    13    1
    39    12    42    1
    40    13    14    1
    41    13    44    1
    42    14    46    1
    43    14    15    1
    44    49    15    1
    45    15    48    1
    46    15    16    1
    47    16    18   ar
    48    16    17   ar
