@<TRIPOS>MOLECULE
IPEHBUMCGVEMRF-UHFFFAOYSA-N	6044687	-432.9348504282163
 14 14 0 0 0
SMALL
MULLIKEN NwChem

@<TRIPOS>ATOM
      1 C          -2.4820   -0.1677    0.1615 C.ar    1  LIG1       0.03000000000000025
      2 C          -1.8491    1.0776    0.0732 C.ar    1  LIG1       0.040000000000000036
      3 C          -0.4632   -1.2038    0.0776 C.ar    1  LIG1       0.019999999999999574
      4 C           0.1747    0.0413   -0.0121 C.ar    1  LIG1       0.2699999999999996
      5 C           1.6588    0.1777   -0.1116 C.3     1  LIG1       0.4800000000000004
      6 N           2.3211    1.2585   -0.1901 N.3     1  LIG1      -0.6799999999999997
      7 N          -1.7942   -1.3133    0.1647 N.ar    1  LIG1      -0.41999999999999993
      8 N          -0.5241    1.1868   -0.0134 N.ar    1  LIG1      -0.4900000000000002
      9 O           2.2853   -1.0263   -0.1122 O.3     1  LIG1      -0.6199999999999992
     10 H          -3.5654   -0.2394    0.2307 H       1  LIG1       0.18999999999999995
     11 H          -2.4243    2.0010    0.0723 H       1  LIG1       0.18999999999999995
     12 H           0.1135   -2.1230    0.0786 H       1  LIG1       0.18999999999999995
     13 H           1.6788    2.0542   -0.1755 H       1  LIG1       0.32999999999999996
     14 H           3.2373   -0.8289   -0.1804 H       1  LIG1       0.44999999999999996
@<TRIPOS>BOND
     1     6    13    1
     2     6     5    1
     3    14     9    1
     4     9     5    1
     5     5     4    1
     6     8     4   ar
     7     8     2   ar
     8     4     3   ar
     9    11     2    1
    10     2     1   ar
    11     3    12    1
    12     3     7   ar
    13     1     7   ar
    14     1    10    1
