@<TRIPOS>MOLECULE
IPRPPFIAVHPVJH-UHFFFAOYSA-N	6044688	-460.00281126785313
 18 18 0 0 0
SMALL
MULLIKEN NwChem

@<TRIPOS>ATOM
      1 C          -1.2937    0.6119   -0.1659 C.ar    1  LIG1      -0.20999999999999996
      2 C           0.8159   -0.5202   -0.3858 C.ar    1  LIG1      -0.20000000000000018
      3 C          -1.9495   -0.6172   -0.0857 C.ar    1  LIG1      -0.20999999999999996
      4 C           0.1770   -1.7522   -0.3084 C.ar    1  LIG1      -0.17999999999999972
      5 C           0.8264    2.0093   -0.3753 C.3     1  LIG1       -0.41999999999999993
      6 C           1.5952    2.2142    0.9200 C.2     1  LIG1       0.2699999999999996
      7 C           0.0933    0.6821   -0.3241 C.ar    1  LIG1      0.1299999999999999
      8 C          -1.2142   -1.8042   -0.1580 C.ar    1  LIG1       0.33999999999999986
      9 O           2.8022    2.2630    0.9989 O.2     1  LIG1      -0.4499999999999993
     10 O          -1.7908   -3.0417   -0.0900 O.3     1  LIG1      -0.6699999999999999
     11 H          -1.8778    1.5276   -0.1119 H       1  LIG1       0.16000000000000003
     12 H           1.8972   -0.4843   -0.4946 H       1  LIG1       0.16000000000000003
     13 H          -3.0313   -0.6519    0.0300 H       1  LIG1       0.16000000000000003
     14 H           0.7332   -2.6825   -0.3614 H       1  LIG1       0.16000000000000003
     15 H           1.5406    2.0509   -1.2043 H       1  LIG1       0.18000000000000005
     16 H           0.1084    2.8323   -0.4900 H       1  LIG1       0.18999999999999995
     17 H           0.9547    2.2783    1.8291 H       1  LIG1          0.14
     18 H          -2.7496   -2.9414    0.0140 H       1  LIG1       0.44999999999999996
@<TRIPOS>BOND
     1    15     5    1
     2    12     2    1
     3    16     5    1
     4     2     7   ar
     5     2     4   ar
     6     5     7    1
     7     5     6    1
     8    14     4    1
     9     7     1   ar
    10     4     8   ar
    11     1    11    1
    12     1     3   ar
    13     8    10    1
    14     8     3   ar
    15    10    18    1
    16     3    13    1
    17     6     9    2
    18     6    17    1
