@<TRIPOS>MOLECULE
IRLPACMLTUPBCL-KQYNXXCUSA-L	6044691	-2153.9633498458675
 39 41 0 0 0
SMALL
MULLIKEN NwChem

@<TRIPOS>ATOM
      1 C           0.2862   -1.0454   -1.5364 C.3     1  LIG1       -0.08000000000000007
      2 C           1.4179    0.0468    6.0832 C.ar    1  LIG1       0.15000000000000036
      3 C           1.2505    2.0162    2.2128 C.ar    1  LIG1       0.21999999999999975
      4 C          -0.3189   -1.0255   -0.1327 C.3     1  LIG1       0.1299999999999999
      5 C           1.8672    1.9109    4.2396 C.ar    1  LIG1       0.1900000000000004
      6 C          -1.6292   -0.2154    0.0274 C.3     1  LIG1       0.05999999999999961
      7 C          -1.4719    0.4856    1.4175 C.3     1  LIG1       0.09999999999999964
      8 C           2.4229    2.0391    5.5235 C.ar    1  LIG1       0.45999999999999996
      9 C           1.0821    0.7664    4.0175 C.ar    1  LIG1       0.5300000000000002
     10 C          -0.1247   -0.0806    1.9355 C.3     1  LIG1       0.2599999999999998
     11 N           3.1781    3.1345    5.8748 N.pl3   1  LIG1      -0.7800000000000002
     12 N           2.1959    1.0879    6.4434 N.ar    1  LIG1        -0.54
     13 N           0.8225   -0.1961    4.9159 N.ar    1  LIG1        -0.54
     14 N           1.9647    2.6840    3.0957 N.ar    1  LIG1      -0.5700000000000003
     15 N           0.6801    0.8617    2.7053 N.ar    1  LIG1      -0.5199999999999996
     16 O          -2.7755   -1.0262    0.0720 O.3     1  LIG1      -0.7400000000000002
     17 O          -2.5477    0.1963    2.2741 O.3     1  LIG1      -0.6999999999999993
     18 O          -3.0952   -1.4650   -2.4312 O.3     1  LIG1      -0.7200000000000006
     19 O          -1.5317    0.4803   -3.2097 O.2     1  LIG1      -0.6999999999999993
     20 O          -0.6143   -3.0440   -6.3303 O.2     1  LIG1      -0.5999999999999996
     21 O          -1.2458   -0.6801   -6.7804 O.2     1  LIG1      -0.5999999999999996
     22 O           0.6074   -1.1968   -5.1854 O.3     1  LIG1      -0.6099999999999994
     23 O          -0.5557   -1.7804   -2.3921 O.3     1  LIG1      -0.5999999999999996
     24 O           0.6253   -0.4319    0.7971 O.3     1  LIG1      -0.5399999999999991
     25 O          -1.8272   -1.7796   -4.5779 O.3     1  LIG1      -0.6500000000000004
     26 P          -1.8328   -0.9909   -3.1584 P.3     1  LIG1       1.1899999999999995
     27 S          -0.6353   -1.6476   -5.8445 S.3     1  LIG1       1.2100000000000009
     28 H           1.2579   -1.5560   -1.4956 H       1  LIG1       0.16000000000000003
     29 H           0.4390   -0.0220   -1.9007 H       1  LIG1       0.16000000000000003
     30 H           1.2619   -0.7007    6.8595 H       1  LIG1       0.17000000000000004
     31 H           1.1067    2.2938    1.1778 H       1  LIG1       0.21999999999999997
     32 H          -0.5339   -2.0572    0.1806 H       1  LIG1       0.15000000000000002
     33 H          -1.7022    0.5262   -0.7765 H       1  LIG1       0.17000000000000004
     34 H          -1.3746    1.5754    1.2980 H       1  LIG1       0.16000000000000003
     35 H          -0.3293   -0.9312    2.6001 H       1  LIG1       0.17000000000000004
     36 H           3.5650    3.6572    5.0986 H       1  LIG1          0.37
     37 H           3.7938    2.9892    6.6647 H       1  LIG1          0.37
     38 H          -3.0131   -1.2336   -0.9175 H       1  LIG1       0.45999999999999996
     39 H          -3.1033   -0.3929    1.7067 H       1  LIG1       0.43000000000000005
@<TRIPOS>BOND
     1    21    27    2
     2    20    27    2
     3    27    22    1
     4    27    25    1
     5    25    26    1
     6    19    26    2
     7    26    18    1
     8    26    23    1
     9    23     1    1
    10    29     1    1
    11     1    28    1
    12     1     4    1
    13    38    16    1
    14    33     6    1
    15     4     6    1
    16     4    32    1
    17     4    24    1
    18     6    16    1
    19     6     7    1
    20    24    10    1
    21    31     3    1
    22    34     7    1
    23     7    10    1
    24     7    17    1
    25    39    17    1
    26    10    35    1
    27    10    15    1
    28     3    15   ar
    29     3    14   ar
    30    15     9   ar
    31    14     5   ar
    32     9     5   ar
    33     9    13   ar
    34     5     8   ar
    35    13     2   ar
    36    36    11    1
    37     8    11    1
    38     8    12   ar
    39    11    37    1
    40     2    12   ar
    41     2    30    1
