@<TRIPOS>MOLECULE
ISAKRJDGNUQOIC-UHFFFAOYSA-N	6044692	-414.7418187954091
 12 12 0 0 0
SMALL
MULLIKEN NwChem

@<TRIPOS>ATOM
      1 C          -1.5612   -0.4491    0.0409 C.ar    1  LIG1       -0.20000000000000018
      2 C          -1.4766    0.9356    0.0020 C.ar    1  LIG1       0.040000000000000036
      3 C          -0.3329   -1.1218    0.0339 C.ar    1  LIG1       0.5499999999999998
      4 C           0.7708    0.8566   -0.0417 C.ar    1  LIG1       0.6500000000000004
      5 N          -0.3208    1.6163   -0.0401 N.ar    1  LIG1         -0.5
      6 N           0.8364   -0.4844   -0.0068 N.ar    1  LIG1      -0.5700000000000003
      7 O          -0.3122   -2.4656    0.0695 O.3     1  LIG1      -0.6300000000000008
      8 O           1.9427    1.5138   -0.0830 O.3     1  LIG1      -0.6199999999999992
      9 H          -2.4999   -0.9867    0.0745 H       1  LIG1       0.18000000000000005
     10 H          -2.3811    1.5408    0.0047 H       1  LIG1       0.18999999999999995
     11 H           0.6259   -2.7301    0.0590 H       1  LIG1       0.44999999999999996
     12 H           2.6395    0.8348   -0.0784 H       1  LIG1       0.44999999999999996
@<TRIPOS>BOND
     1     8    12    1
     2     8     4    1
     3     4     5   ar
     4     4     6   ar
     5     5     2   ar
     6     6     3   ar
     7     2    10    1
     8     2     1   ar
     9     3     1   ar
    10     3     7    1
    11     1     9    1
    12    11     7    1
