@<TRIPOS>MOLECULE
IVOMOUWHDPKRLL-KQYNXXCUSA-M	6044694	-1454.1931485042908
 33 36 0 0 0
SMALL
MULLIKEN NwChem

@<TRIPOS>ATOM
      1 C          -2.0012    2.3768   -1.3223 C.3     1  LIG1       -0.08000000000000007
      2 C           4.0945   -2.0435    0.9831 C.ar    1  LIG1       0.15000000000000036
      3 C           1.1202    1.1006    1.4212 C.ar    1  LIG1       0.20999999999999996
      4 C          -1.0306    1.2556   -1.6697 C.3     1  LIG1       0.1299999999999999
      5 C           2.6691   -0.1375    2.1834 C.ar    1  LIG1       0.1900000000000004
      6 C          -0.1534   -0.8700   -1.1513 C.3     1  LIG1       0.04999999999999982
      7 C          -1.4042   -0.0265   -0.9237 C.3     1  LIG1       0.09999999999999964
      8 C           3.6692   -0.8252    2.8949 C.ar    1  LIG1       0.46999999999999975
      9 C           2.4933   -0.5252    0.8484 C.ar    1  LIG1          0.54
     10 C           0.9341    0.2392   -0.9852 C.3     1  LIG1       0.2599999999999998
     11 N           3.9160   -0.5739    4.2141 N.pl3   1  LIG1      -0.7800000000000002
     12 N           4.3847   -1.7782    2.2699 N.ar    1  LIG1      -0.5499999999999998
     13 N           3.1744   -1.4806    0.1946 N.ar    1  LIG1      -0.5499999999999998
     14 N           1.8033    0.8853    2.5259 N.ar    1  LIG1      -0.5800000000000001
     15 N           1.4920    0.2865    0.3703 N.ar    1  LIG1      -0.5099999999999998
     16 O          -0.1300   -1.3849   -2.4724 O.3     1  LIG1      -0.6600000000000001
     17 O          -5.1154    0.1266   -1.6319 O.2     1  LIG1      -0.6500000000000004
     18 O          -3.7523    0.8282    0.5570 O.3     1  LIG1      -0.6999999999999993
     19 O          -3.2858    1.9272   -1.7307 O.3     1  LIG1      -0.5999999999999996
     20 O           0.3400    1.4910   -1.2679 O.3     1  LIG1      -0.5500000000000007
     21 O          -2.6377   -0.5347   -1.3365 O.3     1  LIG1      -0.6199999999999992
     22 P          -3.8883    0.5631   -0.9153 P.3     1  LIG1       1.1199999999999992
     23 H          -1.7715    3.2984   -1.8720 H       1  LIG1       0.17000000000000004
     24 H          -1.9720    2.5871   -0.2426 H       1  LIG1       0.16000000000000003
     25 H           4.6977   -2.8257    0.5255 H       1  LIG1       0.16000000000000003
     26 H           0.3414    1.8374    1.2905 H       1  LIG1       0.21999999999999997
     27 H          -1.0736    1.0677   -2.7493 H       1  LIG1       0.16000000000000003
     28 H          -0.0227   -1.6649   -0.4054 H       1  LIG1       0.18000000000000005
     29 H          -1.4305    0.2092    0.1535 H       1  LIG1       0.17000000000000004
     30 H           1.7770    0.0425   -1.6590 H       1  LIG1       0.18999999999999995
     31 H           3.5444    0.2835    4.5976 H       1  LIG1          0.38
     32 H           4.7896   -0.9168    4.5867 H       1  LIG1          0.37
     33 H           0.6648   -1.9360   -2.5468 H       1  LIG1       0.43999999999999995
@<TRIPOS>BOND
     1    27     4    1
     2    33    16    1
     3    16     6    1
     4    23     1    1
     5    19     1    1
     6    19    22    1
     7     4     1    1
     8     4    20    1
     9     4     7    1
    10    30    10    1
    11    17    22    2
    12    21     7    1
    13    21    22    1
    14     1    24    1
    15    20    10    1
    16     6    10    1
    17     6     7    1
    18     6    28    1
    19    10    15    1
    20     7    29    1
    21    22    18    1
    22    13     9   ar
    23    13     2   ar
    24    15     9   ar
    25    15     3   ar
    26    25     2    1
    27     9     5   ar
    28     2    12   ar
    29    26     3    1
    30     3    14   ar
    31     5    14   ar
    32     5     8   ar
    33    12     8   ar
    34     8    11    1
    35    11    32    1
    36    11    31    1
