@<TRIPOS>MOLECULE
IXZNKTPIYKDIGG-REOHCLBHSA-L	6044695	-1079.0352537670615
 19 18 0 0 0
SMALL
MULLIKEN NwChem

@<TRIPOS>ATOM
      1 C1          0.9511   -0.4685    1.7939 C.3     1  <1>        -0.34999999999999964
      2 C2          0.2226    0.8625    2.1679 C.3     1  <1>        -0.04999999999999982
      3 C3          0.2275   -1.2053    0.6724 C.2     1  <1>        0.5999999999999996
      4 C4          0.6225    2.0007    1.1532 C.2     1  <1>        0.5499999999999998
      5 N1         -1.2386    0.7293    2.3019 N.3     1  <1>       -0.7999999999999998
      6 O1         -0.6590   -2.0111    0.9295 O.2     1  <1>       -0.5399999999999991
      7 O2         -0.2591    2.3320    0.2994 O.co2   1  <1>       -0.6600000000000001
      8 O3          1.7690    2.4694    1.3104 O.co2   1  <1>       -0.6500000000000004
      9 O4         -1.1509   -1.9592   -2.2135 O.3     1  <1>       -0.6799999999999997
     10 O5         -1.3966    0.4331   -1.3367 O.3     1  <1>         -0.75
     11 O6          0.5682   -0.1204   -2.9735 O.2     1  <1>       -0.6799999999999997
     12 O7          0.6402   -0.8337   -0.5318 O.3     1  <1>       -0.5800000000000001
     13 P1         -0.3956   -0.6885   -1.9743 P.3     1  <1>        1.0399999999999991
     14 H1          0.9571   -1.1368    2.6660 H       1  <1>        0.17000000000000004
     15 H2          1.9789   -0.2165    1.5160 H       1  <1>        0.17000000000000004
     16 H3          0.6587    1.1746    3.1296 H       1  <1>           0.13
     17 H4         -1.5962    1.1992    1.4644 H       1  <1>        0.31000000000000005
     18 H5         -1.4955   -0.2503    2.1766 H       1  <1>        0.31000000000000005
     19 H6         -0.8953    1.1398   -0.8440 H       1  <1>        0.44999999999999996
@<TRIPOS>BOND
     1    11    13    2
     2     9    13    1
     3    13    10    1
     4    13    12    1
     5    10    19    1
     6    12     3    1
     7     7     4   ar
     8     3     6    2
     9     3     1    1
    10     4     8   ar
    11     4     2    1
    12    17     5    1
    13    15     1    1
    14     1     2    1
    15     1    14    1
    16     2     5    1
    17     2    16    1
    18    18     5    1
