@<TRIPOS>MOLECULE
IYSNPOMTKFZDHZ-KQYNXXCUSA-N	6044696	-1347.7334208241398
 31 33 0 0 0
SMALL
MULLIKEN NwChem

@<TRIPOS>ATOM
      1 C          -0.3365   -2.4466   -0.3705 C.3     1  LIG1       -0.40000000000000036
      2 C           2.8725    0.0377    0.9558 C.ar    1  LIG1       0.16000000000000014
      3 C          -0.8208    2.2773    1.5356 C.ar    1  LIG1       0.21999999999999975
      4 C          -1.5631   -1.6489   -0.8092 C.3     1  LIG1       0.09999999999999964
      5 C           1.1948    1.8223    2.0008 C.ar    1  LIG1       0.17999999999999972
      6 C          -1.4255   -0.9014   -2.1340 C.3     1  LIG1       0.08000000000000007
      7 C          -0.7362    0.4146   -1.7175 C.3     1  LIG1       0.07000000000000028
      8 C           2.5110    1.7121    2.4979 C.ar    1  LIG1           0.5
      9 C           0.8538    0.9598    0.9550 C.ar    1  LIG1          0.54
     10 C          -1.3502    0.6501   -0.3091 C.3     1  LIG1          0.25
     11 CL         -0.0826   -3.8758   -1.4623 Cl      1  LIG1      -0.129999999999999
     12 N           2.9721    2.5071    3.4903 N.pl3   1  LIG1      -0.7800000000000002
     13 N           3.3382    0.7982    1.9557 N.ar    1  LIG1      -0.5499999999999998
     14 N           1.6582    0.0449    0.3920 N.ar    1  LIG1        -0.54
     15 N           0.1339    2.6407    2.3518 N.ar    1  LIG1      -0.5700000000000003
     16 N          -0.4615    1.2727    0.6487 N.ar    1  LIG1      -0.5199999999999996
     17 O          -2.7028   -0.5983   -2.7103 O.3     1  LIG1      -0.6699999999999999
     18 O          -0.9794    1.4764   -2.6044 O.3     1  LIG1      -0.6699999999999999
     19 O          -1.8144   -0.6140    0.1697 O.3     1  LIG1      -0.5199999999999996
     20 H          -0.4976   -2.8293    0.6386 H       1  LIG1       0.22999999999999998
     21 H           0.5697   -1.8388   -0.3808 H       1  LIG1          0.24
     22 H           3.5775   -0.6843    0.5499 H       1  LIG1       0.17000000000000004
     23 H          -1.8174    2.7002    1.5096 H       1  LIG1       0.21999999999999997
     24 H          -2.4373   -2.3086   -0.8273 H       1  LIG1       0.18999999999999995
     25 H          -0.8700   -1.4566   -2.8907 H       1  LIG1       0.18999999999999995
     26 H           0.3436    0.2764   -1.6335 H       1  LIG1       0.18999999999999995
     27 H          -2.2053    1.3297   -0.4057 H       1  LIG1       0.18999999999999995
     28 H           2.3330    3.1132    3.9817 H       1  LIG1          0.38
     29 H           3.8805    2.3138    3.8843 H       1  LIG1          0.38
     30 H          -3.3338   -0.4555   -1.9851 H       1  LIG1       0.44999999999999996
     31 H          -1.8334    1.2645   -3.0272 H       1  LIG1       0.43000000000000005
@<TRIPOS>BOND
     1    31    18    1
     2    25     6    1
     3    17     6    1
     4    17    30    1
     5    18     7    1
     6     6     7    1
     7     6     4    1
     8     7    26    1
     9     7    10    1
    10    11     1    1
    11    24     4    1
    12     4     1    1
    13     4    19    1
    14    27    10    1
    15    21     1    1
    16     1    20    1
    17    10    19    1
    18    10    16    1
    19    14     9   ar
    20    14     2   ar
    21    22     2    1
    22    16     9   ar
    23    16     3   ar
    24     9     5   ar
    25     2    13   ar
    26    23     3    1
    27     3    15   ar
    28    13     8   ar
    29     5    15   ar
    30     5     8   ar
    31     8    12    1
    32    12    29    1
    33    12    28    1
