@<TRIPOS>MOLECULE
IZVFFXVYBHFIHY-SKCNUYALSA-N	6044697	-1131.211193001131
 74 77 0 0 0
SMALL
MULLIKEN NwChem

@<TRIPOS>ATOM
      1 C           0.9803   -6.1574    0.4318 C.3     1  LIG1      -0.45999999999999996
      2 C          -0.9236   -5.9982    2.0824 C.3     1  LIG1      -0.45999999999999996
      3 C           2.3337   -1.7256    3.7632 C.3     1  LIG1      -0.4800000000000004
      4 C           0.4484    3.6694   -1.4800 C.3     1  LIG1      -0.4900000000000002
      5 C          -0.4109    0.0394    3.3429 C.3     1  LIG1      -0.4900000000000002
      6 C           2.6643   -4.3898    2.3435 C.3     1  LIG1      -0.28000000000000025
      7 C           1.3448   -5.0882    2.7196 C.3     1  LIG1      -0.2599999999999998
      8 C           2.4965   -3.0422    1.6181 C.3     1  LIG1      -0.28000000000000025
      9 C          -0.1343    1.5880   -3.5919 C.3     1  LIG1      -0.3099999999999996
     10 C           0.0860    0.5268   -2.5551 C.2     1  LIG1      -0.21999999999999975
     11 C           1.4993   -0.6765    0.0713 C.3     1  LIG1      -0.2999999999999998
     12 C          -0.7772   -0.6663    0.9332 C.3     1  LIG1      -0.2999999999999998
     13 C          -2.8607    4.6768   -2.4618 C.3     1  LIG1      -0.28000000000000025
     14 C          -0.9625    2.1564    0.7606 C.3     1  LIG1      -0.2999999999999998
     15 C          -2.0548    4.1144   -1.2785 C.3     1  LIG1      -0.3099999999999996
     16 C           0.2673    1.5888    1.4794 C.3     1  LIG1      -0.2999999999999998
     17 C          -1.1889    3.8244   -4.1347 C.3     1  LIG1      -0.3200000000000003
     18 C           0.3549   -5.3264    1.5612 C.3     1  LIG1      -0.07000000000000028
     19 C           1.6872   -1.9777    2.3879 C.3     1  LIG1      -0.08000000000000007
     20 C          -1.1616    2.6350   -3.1473 C.3     1  LIG1      -0.09999999999999964
     21 C          -1.9344    5.0691   -3.6012 C.3     1  LIG1       0.16000000000000014
     22 C          -0.3120    0.5884   -1.2761 C.2     1  LIG1      0.16999999999999993
     23 C           1.5116   -0.6200    1.6315 C.3     1  LIG1      -0.11000000000000032
     24 C          -0.0028   -0.6250   -0.3913 C.3     1  LIG1      -0.16999999999999993
     25 C          -1.1268    1.7866   -0.7589 C.3     1  LIG1      -0.16000000000000014
     26 C          -0.9563    3.0559   -1.6660 C.3     1  LIG1      0.09999999999999964
     27 C           0.1411    0.0908    1.9132 C.3     1  LIG1      0.11000000000000032
     28 O          -2.7285    5.7003   -4.6082 O.3     1  LIG1      -0.6899999999999995
     29 H           1.8252   -5.6424   -0.0371 H       1  LIG1       0.15000000000000002
     30 H           0.2466   -6.3734   -0.3537 H       1  LIG1          0.14
     31 H           1.3477   -7.1177    0.8179 H       1  LIG1          0.14
     32 H          -0.6979   -6.9800    2.5189 H       1  LIG1          0.14
     33 H          -1.4062   -5.3923    2.8587 H       1  LIG1          0.14
     34 H          -1.6490   -6.1516    1.2745 H       1  LIG1          0.14
     35 H           3.4056   -1.5192    3.6459 H       1  LIG1          0.14
     36 H           1.8894   -0.8684    4.2738 H       1  LIG1       0.15000000000000002
     37 H           2.2328   -2.5911    4.4269 H       1  LIG1       0.15000000000000002
     38 H           0.5928    4.5306   -2.1409 H       1  LIG1       0.15000000000000002
     39 H           0.5945    4.0250   -0.4549 H       1  LIG1       0.15000000000000002
     40 H           1.2383    2.9419   -1.6907 H       1  LIG1       0.15000000000000002
     41 H           0.2437    0.5568    4.0533 H       1  LIG1       0.15000000000000002
     42 H          -1.3874    0.5389    3.3784 H       1  LIG1          0.14
     43 H          -0.5564   -0.9863    3.6985 H       1  LIG1       0.15000000000000002
     44 H           3.2622   -4.2574    3.2538 H       1  LIG1          0.13
     45 H           3.2554   -5.0531    1.6989 H       1  LIG1          0.13
     46 H           0.8340   -4.5069    3.5002 H       1  LIG1          0.13
     47 H           1.5815   -6.0606    3.1765 H       1  LIG1          0.12
     48 H           3.4917   -2.6361    1.3853 H       1  LIG1          0.12
     49 H           2.0174   -3.2415    0.6539 H       1  LIG1       0.15000000000000002
     50 H          -0.4664    1.1280   -4.5346 H       1  LIG1          0.14
     51 H           0.8242    2.0756   -3.8338 H       1  LIG1          0.14
     52 H           0.6189   -0.3651   -2.8892 H       1  LIG1          0.12
     53 H           2.0047   -1.5555   -0.3287 H       1  LIG1          0.14
     54 H           2.0353    0.1831   -0.3402 H       1  LIG1          0.14
     55 H          -1.7882   -0.2544    0.8697 H       1  LIG1          0.14
     56 H          -0.8895   -1.7049    1.2676 H       1  LIG1          0.14
     57 H          -3.4394    5.5509   -2.1436 H       1  LIG1          0.14
     58 H          -3.5839    3.9414   -2.8359 H       1  LIG1          0.14
     59 H          -1.8651    1.8615    1.3094 H       1  LIG1          0.14
     60 H          -0.9301    3.2458    0.8508 H       1  LIG1       0.15000000000000002
     61 H          -2.7599    3.6817   -0.5606 H       1  LIG1       0.15000000000000002
     62 H          -1.5767    4.9546   -0.7586 H       1  LIG1          0.14
     63 H           0.4662    2.1892    2.3765 H       1  LIG1          0.13
     64 H           1.1387    1.7343    0.8327 H       1  LIG1          0.14
     65 H          -1.7006    3.4984   -5.0493 H       1  LIG1          0.14
     66 H          -0.1644    4.0938   -4.4243 H       1  LIG1          0.14
     67 H           0.0677   -4.3492    1.1449 H       1  LIG1          0.14
     68 H           0.6895   -2.4025    2.5574 H       1  LIG1          0.14
     69 H          -2.1470    2.1489   -3.1884 H       1  LIG1          0.13
     70 H          -1.2003    5.7928   -3.2058 H       1  LIG1          0.12
     71 H           2.3382    0.0283    1.9532 H       1  LIG1       0.10999999999999999
     72 H          -0.2269   -1.5176   -0.9851 H       1  LIG1          0.13
     73 H          -2.1794    1.4863   -0.8815 H       1  LIG1          0.14
     74 H          -2.1404    5.9310   -5.3438 H       1  LIG1       0.42000000000000004
@<TRIPOS>BOND
     1    74    28    1
     2    65    17    1
     3    28    21    1
     4    50     9    1
     5    66    17    1
     6    17    21    1
     7    17    20    1
     8    51     9    1
     9    21    70    1
    10    21    13    1
    11     9    20    1
    12     9    10    1
    13    69    20    1
    14    20    26    1
    15    52    10    1
    16    58    13    1
    17    10    22    2
    18    13    57    1
    19    13    15    1
    20    38     4    1
    21    40     4    1
    22    26     4    1
    23    26    15    1
    24    26    25    1
    25     4    39    1
    26    15    62    1
    27    15    61    1
    28    22    25    1
    29    22    24    1
    30    72    24    1
    31    73    25    1
    32    25    14    1
    33    24    11    1
    34    24    12    1
    35    30     1    1
    36    54    11    1
    37    53    11    1
    38    29     1    1
    39    11    23    1
    40     1    31    1
    41     1    18    1
    42    49     8    1
    43    14    60    1
    44    14    59    1
    45    14    16    1
    46    64    16    1
    47    55    12    1
    48    12    56    1
    49    12    27    1
    50    67    18    1
    51    34     2    1
    52    48     8    1
    53    16    27    1
    54    16    63    1
    55    18     2    1
    56    18     7    1
    57     8     6    1
    58     8    19    1
    59    23    27    1
    60    23    71    1
    61    23    19    1
    62    45     6    1
    63    27     5    1
    64     2    32    1
    65     2    33    1
    66     6     7    1
    67     6    44    1
    68    19    68    1
    69    19     3    1
    70     7    47    1
    71     7    46    1
    72     5    42    1
    73     5    43    1
    74     5    41    1
    75    35     3    1
    76     3    36    1
    77     3    37    1
