@<TRIPOS>MOLECULE
JAZBEHYOTPTENJ-JLNKQSITSA-M	6044698	-929.7241920262979
 51 50 0 0 0
SMALL
MULLIKEN NwChem

@<TRIPOS>ATOM
      1 C           6.6342   -0.1274   -8.5768 C.3     1  LIG1      -0.4500000000000002
      2 C           6.2117   -1.0733   -7.4389 C.3     1  LIG1      -0.2999999999999998
      3 C           6.3511   -0.4281   -6.0853 C.2     1  LIG1      -0.1200000000000001
      4 C           5.3869   -0.1447   -5.2018 C.2     1  LIG1      -0.1299999999999999
      5 C           3.9084   -0.4391   -5.3127 C.3     1  LIG1      -0.3600000000000003
      6 C           3.4872   -1.4754   -4.2947 C.2     1  LIG1      -0.1200000000000001
      7 C           2.7192   -1.2959   -3.2137 C.2     1  LIG1      -0.1200000000000001
      8 C           2.0376   -0.0283   -2.7541 C.3     1  LIG1      -0.3600000000000003
      9 C           0.5324   -0.1736   -2.7908 C.2     1  LIG1      -0.1200000000000001
     10 C          -0.3080   -0.2105   -1.7497 C.2     1  LIG1      -0.1200000000000001
     11 C           0.0186   -0.0722   -0.2817 C.3     1  LIG1      -0.3600000000000003
     12 C          -0.5492    1.2104    0.2866 C.2     1  LIG1      -0.1200000000000001
     13 C          -1.5117    1.3344    1.2090 C.2     1  LIG1      -0.11000000000000032
     14 C          -2.2443    0.2461    1.9554 C.3     1  LIG1      -0.3600000000000003
     15 C          -1.8726    0.2492    3.4252 C.2     1  LIG1      -0.1299999999999999
     16 C          -2.6637    0.5726    4.4566 C.2     1  LIG1      -0.1299999999999999
     17 C          -4.1092    0.9850    4.4220 C.3     1  LIG1      -0.2999999999999998
     18 C          -5.0675   -0.1407    4.8843 C.3     1  LIG1      -0.2599999999999998
     19 C          -4.7335   -0.7369    6.2639 C.3     1  LIG1       -0.3200000000000003
     20 C          -4.6626    0.3800    7.3640 C.2     1  LIG1           0.5
     21 O          -5.7110    0.5657    8.0246 O.co2   1  LIG1      -0.6799999999999997
     22 O          -3.5634    1.0051    7.4135 O.co2   1  LIG1      -0.6600000000000001
     23 H           5.9846    0.7542   -8.6091 H       1  LIG1       0.15000000000000002
     24 H           6.5820   -0.6285   -9.5506 H       1  LIG1       0.15000000000000002
     25 H           7.6633    0.2245   -8.4345 H       1  LIG1       0.15000000000000002
     26 H           5.1852   -1.4158   -7.6094 H       1  LIG1       0.15000000000000002
     27 H           6.8450   -1.9726   -7.4729 H       1  LIG1       0.15000000000000002
     28 H           7.3730   -0.1451   -5.8247 H       1  LIG1          0.13
     29 H           5.6760    0.3254   -4.2615 H       1  LIG1          0.13
     30 H           3.3468    0.4917   -5.1677 H       1  LIG1       0.16000000000000003
     31 H           3.6595   -0.7975   -6.3191 H       1  LIG1       0.16000000000000003
     32 H           3.9039   -2.4680   -4.4687 H       1  LIG1          0.14
     33 H           2.5199   -2.1613   -2.5811 H       1  LIG1          0.14
     34 H           2.3736    0.2068   -1.7368 H       1  LIG1       0.16000000000000003
     35 H           2.3362    0.8216   -3.3810 H       1  LIG1       0.16000000000000003
     36 H           0.1177   -0.2875   -3.7931 H       1  LIG1          0.14
     37 H          -1.3729   -0.3165   -1.9598 H       1  LIG1          0.14
     38 H          -0.3868   -0.9375    0.2562 H       1  LIG1       0.16000000000000003
     39 H           1.1047   -0.0925   -0.1233 H       1  LIG1       0.16000000000000003
     40 H          -0.1166    2.1174   -0.1381 H       1  LIG1          0.13
     41 H          -1.7894    2.3435    1.5163 H       1  LIG1          0.13
     42 H          -3.3239    0.4032    1.8418 H       1  LIG1       0.16000000000000003
     43 H          -2.0281   -0.7375    1.5166 H       1  LIG1       0.16000000000000003
     44 H          -0.8332   -0.0191    3.6231 H       1  LIG1          0.13
     45 H          -2.2762    0.5311    5.4740 H       1  LIG1          0.13
     46 H          -4.2172    1.8225    5.1198 H       1  LIG1          0.14
     47 H          -4.4133    1.3304    3.4236 H       1  LIG1          0.13
     48 H          -6.0852    0.2738    4.9219 H       1  LIG1          0.13
     49 H          -5.0706   -0.9320    4.1167 H       1  LIG1          0.13
     50 H          -5.5101   -1.4670    6.5265 H       1  LIG1       0.10999999999999999
     51 H          -3.7705   -1.2627    6.2090 H       1  LIG1           0.12
@<TRIPOS>BOND
     1    24     1    1
     2    23     1    1
     3     1    25    1
     4     1     2    1
     5    26     2    1
     6    27     2    1
     7     2     3    1
     8    31     5    1
     9     3    28    1
    10     3     4    2
    11     5     4    1
    12     5    30    1
    13     5     6    1
    14     4    29    1
    15    32     6    1
    16     6     7    2
    17    36     9    1
    18    35     8    1
    19     7     8    1
    20     7    33    1
    21     9     8    1
    22     9    10    2
    23     8    34    1
    24    37    10    1
    25    10    11    1
    26    11    39    1
    27    11    38    1
    28    11    12    1
    29    40    12    1
    30    12    13    2
    31    13    41    1
    32    13    14    1
    33    43    14    1
    34    42    14    1
    35    14    15    1
    36    47    17    1
    37    15    44    1
    38    15    16    2
    39    49    18    1
    40    17    16    1
    41    17    18    1
    42    17    46    1
    43    16    45    1
    44    18    48    1
    45    18    19    1
    46    51    19    1
    47    19    50    1
    48    19    20    1
    49    20    22   ar
    50    20    21   ar
