@<TRIPOS>MOLECULE
JCHLKIQZUXYLPW-UMMCILCDSA-J	11095330	-2815.0804420314635
 45 47 0 0 0
SMALL
MULLIKEN NwChem

@<TRIPOS>ATOM
      1 C           0.4410    0.0653    0.2920 C.3     1  LIG1       -0.04999999999999982
      2 C          -0.7601    0.1763   -0.6415 C.3     1  LIG1       0.11000000000000032
      3 C          -6.1650    1.1156    0.8775 C.ar    1  LIG1       0.09999999999999964
      4 C          -1.0022    1.5861   -1.1981 C.3     1  LIG1       0.09999999999999964
      5 C          -2.4097    1.4269   -1.7812 C.3     1  LIG1       0.08000000000000007
      6 C          -5.3244    0.2314    0.2677 C.ar    1  LIG1       0.5199999999999996
      7 C          -7.5176    0.6432    1.2292 C.ar    1  LIG1       0.4500000000000002
      8 C          -3.0792    0.4082   -0.8153 C.3     1  LIG1       0.2699999999999996
      9 C          -6.9646   -1.5395    0.3645 C.ar    1  LIG1       0.5599999999999996
     10 C          -4.3332    2.2781    0.4820 C.ar    1  LIG1       0.6299999999999999
     11 N          -7.2584   -2.8219    0.1841 N.pl3   1  LIG1      -0.8499999999999996
     12 N          -5.5551    2.3762    1.0138 N.ar    1  LIG1      -0.7300000000000004
     13 N          -5.6714   -1.0638   -0.0933 N.ar    1  LIG1      -0.7400000000000002
     14 N          -7.8295   -0.6750    0.9248 N.ar    1  LIG1      -0.6799999999999997
     15 N          -4.1463    0.9014   -0.0311 N.ar    1  LIG1      -0.5800000000000001
     16 O          -0.0736    1.9676   -2.2181 O.3     1  LIG1      -0.6999999999999993
     17 O          -2.3063    0.8421   -3.0924 O.3     1  LIG1      -0.7100000000000009
     18 O          -8.3675    1.3867    1.7714 O.2     1  LIG1      -0.6999999999999993
     19 O          -3.4085    3.1236    0.3437 O.2     1  LIG1      -0.7100000000000009
     20 O           8.4233   -0.8441    0.0615 O.3     1  LIG1      -0.6699999999999999
     21 O           6.5739   -1.6217   -1.6553 O.2     1  LIG1      -0.6899999999999995
     22 O           6.6380    0.7965   -0.6863 O.3     1  LIG1      -0.7400000000000002
     23 O           3.9017    1.3400   -0.8573 O.2     1  LIG1      -0.6500000000000004
     24 O           3.0221    0.8501    1.5945 O.3     1  LIG1      -0.7100000000000009
     25 O           4.0779   -1.4277    2.4532 O.3     1  LIG1      -0.7100000000000009
     26 O           4.5419   -3.3360    0.7827 O.2     1  LIG1      -0.5999999999999996
     27 O           1.5758    0.4416   -0.5152 O.3     1  LIG1      -0.5800000000000001
     28 O          -1.9771   -0.1343    0.0157 O.3     1  LIG1      -0.5700000000000003
     29 O           5.9791   -1.1229    0.8535 O.3     1  LIG1      -0.6500000000000004
     30 O           3.5415   -1.0828   -0.0114 O.3     1  LIG1      -0.6600000000000001
     31 P           7.0343   -0.7782   -0.5041 P.3     1  LIG1          1.08
     32 P           3.1019    0.5248    0.1162 P.3     1  LIG1       1.1999999999999993
     33 P           4.5845   -1.8672    0.9843 P.3     1  LIG1       1.1799999999999997
     34 H           0.3404    0.7429    1.1461 H       1  LIG1       0.17000000000000004
     35 H           0.5641   -0.9595    0.6639 H       1  LIG1       0.18000000000000005
     36 H          -0.5816   -0.4967   -1.5004 H       1  LIG1          0.14
     37 H          -1.0458    2.3126   -0.3786 H       1  LIG1       0.15000000000000002
     38 H          -2.9627    2.3674   -1.8058 H       1  LIG1       0.15000000000000002
     39 H          -3.4541   -0.4232   -1.4263 H       1  LIG1       0.16000000000000003
     40 H          -6.4655   -3.2473   -0.3178 H       1  LIG1          0.26
     41 H          -4.9301   -1.7547   -0.0406 H       1  LIG1          0.36
     42 H           0.7920    1.6321   -1.9105 H       1  LIG1       0.44999999999999996
     43 H          -1.4015    1.0902   -3.3656 H       1  LIG1       0.42000000000000004
     44 H           5.6685    0.9212   -0.8446 H       1  LIG1          0.47
     45 H           3.6914   -0.5040    2.3685 H       1  LIG1           0.47
@<TRIPOS>BOND
     1    43    17    1
     2    17     5    1
     3    16    42    1
     4    16     4    1
     5    38     5    1
     6     5     4    1
     7     5     8    1
     8    21    31    2
     9    36     2    1
    10    39     8    1
    11     4     2    1
    12     4    37    1
    13    23    32    2
    14    44    22    1
    15     8    15    1
    16     8    28    1
    17    22    31    1
    18     2    28    1
    19     2     1    1
    20    27    32    1
    21    27     1    1
    22    31    20    1
    23    31    29    1
    24    40    11    1
    25    13    41    1
    26    13     6   ar
    27    13     9   ar
    28    15     6   ar
    29    15    10   ar
    30    30    32    1
    31    30    33    1
    32    32    24    1
    33    11     9    1
    34     6     3   ar
    35     1    35    1
    36     1    34    1
    37    19    10    2
    38     9    14   ar
    39    10    12   ar
    40    26    33    2
    41    29    33    1
    42     3    12   ar
    43     3     7   ar
    44    14     7   ar
    45    33    25    1
    46     7    18    2
    47    45    25    1
