@<TRIPOS>MOLECULE
JEJNWEREQWMOHB-UHFFFAOYSA-M	6044702	-566.8941933450033
 16 16 0 0 0
SMALL
MULLIKEN NwChem

@<TRIPOS>ATOM
      1 C           0.2506   -0.8052    0.0896 C.3     1  LIG1       -0.4500000000000002
      2 C          -0.0785   -0.2335    2.6490 C.ar    1  LIG1       -0.1299999999999999
      3 C           0.3603    1.8577    2.5752 C.ar    1  LIG1       0.17999999999999972
      4 C           0.1996    0.0377    1.3252 C.ar    1  LIG1       0.3200000000000003
      5 C           0.0880   -0.0733   -1.2620 C.2     1  LIG1       0.3799999999999999
      6 C          -0.1471   -1.0215   -2.4639 C.2     1  LIG1       0.4900000000000002
      7 N           0.0260    0.9040    3.4251 N.ar    1  LIG1      -0.5099999999999998
      8 N           0.4931    1.3847    1.3046 N.ar    1  LIG1      -0.5899999999999999
      9 O           0.2621    1.1421   -1.3588 O.2     1  LIG1      -0.5299999999999994
     10 O          -1.1644   -0.8286   -3.1545 O.co2   1  LIG1      -0.6400000000000006
     11 O           0.7752   -1.8753   -2.5282 O.co2   1  LIG1      -0.6400000000000006
     12 H          -0.4960   -1.6062    0.1426 H       1  LIG1       0.19999999999999996
     13 H           1.2115   -1.3276   -0.0114 H       1  LIG1       0.20999999999999996
     14 H          -0.3466   -1.1881    3.0848 H       1  LIG1       0.15000000000000002
     15 H           0.5214    2.8984    2.8262 H       1  LIG1       0.18000000000000005
     16 H           0.6029    1.8585    0.4083 H       1  LIG1           0.38
@<TRIPOS>BOND
     1    10     6   ar
     2    11     6   ar
     3     6     5    1
     4     9     5    2
     5     5     1    1
     6    13     1    1
     7     1    12    1
     8     1     4    1
     9    16     8    1
    10     8     4   ar
    11     8     3   ar
    12     4     2   ar
    13     3    15    1
    14     3     7   ar
    15     2    14    1
    16     2     7   ar
