@<TRIPOS>MOLECULE
JFCQEDHGNNZCLN-UHFFFAOYSA-L	6044703	-495.2565593270836
 15 14 0 0 0
SMALL
MULLIKEN NwChem

@<TRIPOS>ATOM
      1 C           0.2586   -0.5374    0.5607 C.3     1  LIG1      -0.23000000000000043
      2 C          -0.3850    0.4164    1.5831 C.3     1  LIG1       -0.34999999999999964
      3 C          -0.3901   -0.5511   -0.8303 C.3     1  LIG1       -0.34999999999999964
      4 C          -0.0112    1.9451    1.4995 C.2     1  LIG1       0.5099999999999998
      5 C          -0.0154   -1.7679   -1.7601 C.2     1  LIG1       0.5099999999999998
      6 O          -0.8758    2.7337    1.9770 O.co2   1  LIG1      -0.6999999999999993
      7 O           1.1272    2.2225    1.0364 O.co2   1  LIG1      -0.6799999999999997
      8 O          -0.1495   -1.5618   -2.9989 O.co2   1  LIG1      -0.6999999999999993
      9 O           0.3278   -2.8400   -1.1868 O.co2   1  LIG1      -0.6799999999999997
     10 H           0.2367   -1.5746    0.9234 H       1  LIG1       0.09999999999999998
     11 H           1.3146   -0.2510    0.4677 H       1  LIG1       0.10999999999999999
     12 H          -1.4824    0.3301    1.5614 H       1  LIG1       0.10999999999999999
     13 H          -0.0855    0.1018    2.6013 H       1  LIG1          0.12
     14 H          -1.4889   -0.5857   -0.7083 H       1  LIG1          0.13
     15 H          -0.1821    0.3836   -1.3659 H       1  LIG1       0.10999999999999999
@<TRIPOS>BOND
     1     8     5   ar
     2     5     9   ar
     3     5     3    1
     4    15     3    1
     5     3    14    1
     6     3     1    1
     7    11     1    1
     8     1    10    1
     9     1     2    1
    10     7     4   ar
    11     4     2    1
    12     4     6   ar
    13    12     2    1
    14     2    13    1
