@<TRIPOS>MOLECULE
JHIWIFRQJXLNEU-GSQAGGHASA-M	6044704	-1318.1346779857151
 74 77 0 0 0
SMALL
MULLIKEN NwChem

@<TRIPOS>ATOM
      1 C          -1.9722   -4.2607    4.8671 C.3     1  LIG1      -0.5300000000000002
      2 C          -4.3392   -3.7275    5.6181 C.3     1  LIG1      -0.5199999999999996
      3 C          -2.0457    1.3618    4.6459 C.3     1  LIG1      -0.4800000000000004
      4 C           0.2794    2.1119    2.5847 C.3     1  LIG1      -0.4900000000000002
      5 C           0.3863   -0.9669   -3.2204 C.3     1  LIG1      -0.4900000000000002
      6 C          -1.1791   -1.3937    5.7113 C.3     1  LIG1      -0.3200000000000003
      7 C          -2.5511   -2.0127    5.8408 C.2     1  LIG1      -0.20000000000000018
      8 C          -0.8629   -0.8627    4.2928 C.3     1  LIG1      -0.2699999999999996
      9 C          -0.0218    2.6497   -1.9529 C.3     1  LIG1      -0.33999999999999986
     10 C           0.4408    2.2089   -3.3452 C.3     1  LIG1      -0.2599999999999998
     11 C          -2.8020    1.2495    1.5714 C.3     1  LIG1      -0.29000000000000004
     12 C          -2.3044    1.4412    0.1407 C.3     1  LIG1      -0.28000000000000025
     13 C           0.4923   -0.6854   -0.0302 C.3     1  LIG1      -0.3600000000000003
     14 C           3.5102   -0.9537   -3.4409 C.3     1  LIG1      -0.28000000000000025
     15 C           0.7126   -0.0202    1.3346 C.3     1  LIG1      -0.29000000000000004
     16 C           2.6808   -0.7254   -2.1665 C.3     1  LIG1      -0.28000000000000025
     17 C          -2.9150   -3.2495    5.4718 C.2     1  LIG1      0.17999999999999972
     18 C          -1.8895    0.1361    3.7248 C.3     1  LIG1      -0.05999999999999961
     19 C           0.0002    1.5320   -0.9321 C.2     1  LIG1      0.09999999999999964
     20 C          -1.6724    0.4233    2.2118 C.3     1  LIG1      -0.1200000000000001
     21 C          -0.8053    1.7983    0.3225 C.3     1  LIG1      -0.1900000000000004
     22 C           0.6046    0.3480   -1.1370 C.2     1  LIG1      0.07000000000000028
     23 C           1.6693    1.3065   -3.2072 C.3     1  LIG1      -0.09999999999999964
     24 C           3.7607    0.3329   -4.2211 C.3     1  LIG1       0.16999999999999993
     25 C           2.4564    1.0859   -4.5196 C.3     1  LIG1       -0.23000000000000043
     26 C           1.6181    0.4621   -5.7073 C.2     1  LIG1       0.5499999999999998
     27 C          -0.3456    1.0628    1.6501 C.3     1  LIG1      0.13999999999999968
     28 C           1.3271   -0.0110   -2.4413 C.3     1  LIG1      0.04999999999999982
     29 O           4.6696    1.1337   -3.4192 O.3     1  LIG1      -0.6999999999999993
     30 O           0.6767    1.1850   -6.1097 O.co2   1  LIG1      -0.6699999999999999
     31 O           1.9805   -0.6746   -6.1149 O.co2   1  LIG1      -0.6699999999999999
     32 H          -2.0019   -5.2074    5.4242 H       1  LIG1       0.16000000000000003
     33 H          -0.9361   -3.9163    4.8381 H       1  LIG1       0.16000000000000003
     34 H          -2.2717   -4.4965    3.8359 H       1  LIG1       0.16000000000000003
     35 H          -4.9810   -2.9708    6.0822 H       1  LIG1       0.16000000000000003
     36 H          -4.7725   -3.9843    4.6406 H       1  LIG1       0.16000000000000003
     37 H          -4.3898   -4.6399    6.2298 H       1  LIG1       0.16000000000000003
     38 H          -1.0841    1.8116    4.9081 H       1  LIG1       0.15000000000000002
     39 H          -2.6642    2.1390    4.1864 H       1  LIG1       0.15000000000000002
     40 H          -2.5376    1.0723    5.5821 H       1  LIG1       0.15000000000000002
     41 H          -0.4486    2.8714    2.8914 H       1  LIG1       0.15000000000000002
     42 H           0.7018    1.6597    3.4891 H       1  LIG1       0.15000000000000002
     43 H           1.0946    2.6252    2.0605 H       1  LIG1          0.14
     44 H          -0.5768   -0.4876   -3.4221 H       1  LIG1          0.14
     45 H           0.8152   -1.2725   -4.1771 H       1  LIG1       0.16000000000000003
     46 H           0.1928   -1.8653   -2.6172 H       1  LIG1          0.14
     47 H          -1.0887   -0.5757    6.4359 H       1  LIG1          0.14
     48 H          -0.4022   -2.1202    5.9839 H       1  LIG1          0.14
     49 H          -3.3289   -1.3597    6.2386 H       1  LIG1          0.13
     50 H           0.1333   -0.4036    4.3105 H       1  LIG1          0.14
     51 H          -0.7987   -1.7230    3.6137 H       1  LIG1          0.14
     52 H           0.6194    3.4697   -1.5836 H       1  LIG1          0.14
     53 H          -1.0361    3.0774   -1.9992 H       1  LIG1          0.14
     54 H           0.6828    3.0785   -3.9667 H       1  LIG1       0.10999999999999999
     55 H          -0.3486    1.6838   -3.8873 H       1  LIG1          0.14
     56 H          -2.8958    2.2281    2.0622 H       1  LIG1          0.14
     57 H          -3.7779    0.7518    1.6454 H       1  LIG1          0.13
     58 H          -2.3929    0.5020   -0.4203 H       1  LIG1          0.13
     59 H          -2.8466    2.2085   -0.4222 H       1  LIG1          0.14
     60 H           1.2177   -1.4916   -0.1621 H       1  LIG1          0.14
     61 H          -0.4973   -1.1688   -0.0533 H       1  LIG1       0.15000000000000002
     62 H           4.4756   -1.4033   -3.1691 H       1  LIG1          0.12
     63 H           2.9990   -1.6311   -4.1297 H       1  LIG1       0.15000000000000002
     64 H           1.7077    0.4424    1.3173 H       1  LIG1          0.12
     65 H           0.7295   -0.7715    2.1321 H       1  LIG1          0.14
     66 H           2.5126   -1.6970   -1.6831 H       1  LIG1          0.13
     67 H           3.2648   -0.1135   -1.4656 H       1  LIG1          0.12
     68 H          -2.8610   -0.3821    3.7496 H       1  LIG1          0.12
     69 H          -1.7370   -0.5689    1.7372 H       1  LIG1          0.12
     70 H          -0.7664    2.8800    0.5205 H       1  LIG1          0.12
     71 H           2.3661    1.8367   -2.5344 H       1  LIG1       0.10999999999999999
     72 H           4.2438    0.0798   -5.1744 H       1  LIG1       0.09999999999999998
     73 H           2.7314    2.0932   -4.8810 H       1  LIG1       0.10999999999999999
     74 H           4.5913    2.0395   -3.7571 H       1  LIG1       0.42000000000000004
@<TRIPOS>BOND
     1    31    26   ar
     2    30    26   ar
     3    26    25    1
     4    72    24    1
     5    73    25    1
     6    25    24    1
     7    25    23    1
     8    24    14    1
     9    24    29    1
    10    45     5    1
    11    63    14    1
    12    54    10    1
    13    55    10    1
    14    74    29    1
    15    14    62    1
    16    14    16    1
    17    44     5    1
    18    10    23    1
    19    10     9    1
    20     5    46    1
    21     5    28    1
    22    23    71    1
    23    23    28    1
    24    28    16    1
    25    28    22    1
    26    16    66    1
    27    16    67    1
    28    53     9    1
    29     9    52    1
    30     9    19    1
    31    22    19    2
    32    22    13    1
    33    19    21    1
    34    59    12    1
    35    58    12    1
    36    60    13    1
    37    61    13    1
    38    13    15    1
    39    12    21    1
    40    12    11    1
    41    21    70    1
    42    21    27    1
    43    64    15    1
    44    15    27    1
    45    15    65    1
    46    11    57    1
    47    11    56    1
    48    11    20    1
    49    27    20    1
    50    27     4    1
    51    69    20    1
    52    43     4    1
    53    20    18    1
    54     4    41    1
    55     4    42    1
    56    51     8    1
    57    18    68    1
    58    18     8    1
    59    18     3    1
    60    34     1    1
    61    39     3    1
    62     8    50    1
    63     8     6    1
    64    36     2    1
    65     3    38    1
    66     3    40    1
    67    33     1    1
    68     1    32    1
    69     1    17    1
    70    17     2    1
    71    17     7    2
    72     2    35    1
    73     2    37    1
    74     6     7    1
    75     6    48    1
    76     6    47    1
    77     7    49    1
