@<TRIPOS>MOLECULE
JHPNVNIEXXLNTR-UHFFFAOYSA-N	6044705	-480.78837690126153
 25 24 0 0 0
SMALL
MULLIKEN NwChem

@<TRIPOS>ATOM
      1 C          -0.8710   -1.4938    0.6514 C.3     1  LIG1      -0.3600000000000003
      2 C           0.2454   -1.7827   -1.5008 C.3     1  LIG1      -0.34999999999999964
      3 C          -2.1914   -1.4160   -1.4058 C.3     1  LIG1      -0.33999999999999986
      4 C          -0.7953    1.4012    0.2243 C.3     1  LIG1      -0.29000000000000004
      5 C           0.3498    1.3264    1.2723 C.3     1  LIG1       -0.33999999999999986
      6 C          -0.6391    0.4782   -0.9879 C.3     1  LIG1      -0.16000000000000014
      7 C           1.6267    0.7903    0.5530 C.2     1  LIG1       0.5099999999999998
      8 N          -0.8738   -1.0513   -0.7950 N.4     1  LIG1       -0.34999999999999964
      9 O           2.1945    1.5903   -0.2127 O.co2   1  LIG1      -0.6400000000000006
     10 O           1.8421   -0.4571    0.6987 O.co2   1  LIG1      -0.6300000000000008
     11 H          -1.0770   -2.5667    0.6645 H       1  LIG1       0.19999999999999996
     12 H          -1.6582   -0.9594    1.1829 H       1  LIG1       0.19999999999999996
     13 H           0.1308   -1.2685    1.0467 H       1  LIG1          0.24
     14 H           0.0533   -2.8567   -1.4377 H       1  LIG1       0.19999999999999996
     15 H           0.2592   -1.4655   -2.5456 H       1  LIG1       0.20999999999999996
     16 H           1.1730   -1.5077   -0.9831 H       1  LIG1       0.21999999999999997
     17 H          -2.9782   -0.8416   -0.9123 H       1  LIG1       0.21999999999999997
     18 H          -2.1732   -1.1821   -2.4719 H       1  LIG1       0.20999999999999996
     19 H          -2.3701   -2.4840   -1.2664 H       1  LIG1       0.20999999999999996
     20 H          -0.7782    2.3968   -0.2351 H       1  LIG1       0.18000000000000005
     21 H          -1.7886    1.2972    0.6812 H       1  LIG1       0.17000000000000004
     22 H           0.5284    2.3337    1.6600 H       1  LIG1          0.14
     23 H           0.0720    0.6828    2.1122 H       1  LIG1          0.14
     24 H           0.3765    0.5954   -1.3660 H       1  LIG1       0.19999999999999996
     25 H          -1.3375    0.7666   -1.7771 H       1  LIG1       0.19999999999999996
@<TRIPOS>BOND
     1    15     2    1
     2    18     3    1
     3    25     6    1
     4     2    14    1
     5     2    16    1
     6     2     8    1
     7     3    19    1
     8     3    17    1
     9     3     8    1
    10    24     6    1
    11     6     8    1
    12     6     4    1
    13     8     1    1
    14    20     4    1
    15     9     7   ar
    16     4    21    1
    17     4     5    1
    18     7    10   ar
    19     7     5    1
    20     1    11    1
    21     1    13    1
    22     1    12    1
    23     5    22    1
    24     5    23    1
