@<TRIPOS>MOLECULE
JJMDCOVWQOJGCB-UHFFFAOYSA-N	6044709	-402.25123690046547
 19 18 0 0 0
SMALL
MULLIKEN NwChem

@<TRIPOS>ATOM
      1 CG2        -0.3621    2.1407    0.2061 C.3     1  VAL1      -0.45999999999999996
      2 CG1        -1.9972    0.2942   -0.3827 C.3     1  VAL1      -0.46999999999999975
      3 CB         -0.6487    0.9458   -0.7135 C.3     1  VAL1      -0.08999999999999986
      4 CA          0.5301   -0.0845   -0.7363 C.3     1  VAL1       -0.03000000000000025
      5 C           0.6978   -0.7228    0.6338 C.2     1  VAL1       0.6100000000000003
      6 N           0.3959   -1.1695   -1.7073 N.3     1  VAL1      -0.7800000000000002
      7 O           0.1164   -1.7199    1.0062 O.2     1  VAL1      -0.5199999999999996
      8 OXT         1.5384   -0.0249    1.4326 O.3     1  VAL1      -0.5800000000000001
      9 HG21       -0.3456    1.8387    1.2589 H       1  VAL1       0.15000000000000002
     10 HG22        0.6080    2.5981   -0.0201 H       1  VAL1       0.15000000000000002
     11 HG23       -1.1359    2.9076    0.0891 H       1  VAL1       0.15000000000000002
     12 HG11       -2.0086   -0.0982    0.6399 H       1  VAL1       0.15000000000000002
     13 HG12       -2.8076    1.0257   -0.4753 H       1  VAL1       0.15000000000000002
     14 HG13       -2.2182   -0.5381   -1.0593 H       1  VAL1       0.15000000000000002
     15 HB         -0.6979    1.3243   -1.7466 H       1  VAL1       0.15000000000000002
     16 HA          1.4471    0.4738   -0.9590 H       1  VAL1       0.16000000000000003
     17 H1          0.0230   -0.8070   -2.5826 H       1  VAL1       0.32999999999999996
     18 H2         -0.2663   -1.8564   -1.3518 H       1  VAL1       0.32999999999999996
     19 HXT         1.5413   -0.4846    2.2941 H       1  VAL1       0.44999999999999996
@<TRIPOS>BOND
     1    17     6    1
     2    15     3    1
     3     6    18    1
     4     6     4    1
     5    14     2    1
     6    16     4    1
     7     4     3    1
     8     4     5    1
     9     3     2    1
    10     3     1    1
    11    13     2    1
    12     2    12    1
    13    10     1    1
    14    11     1    1
    15     1     9    1
    16     5     7    2
    17     5     8    1
    18     8    19    1
