@<TRIPOS>MOLECULE
JLEBZPBDRKPWTD-TURQNECASA-O	6044712	-913.419229878931
 33 34 0 0 0
SMALL
MULLIKEN NwChem

@<TRIPOS>ATOM
      1 C           0.9499   -1.7270    2.3897 C.2     1  LIG1      -0.17999999999999972
      2 C           1.2097   -0.5866    3.1470 C.3     1  LIG1       -0.08000000000000007
      3 C           0.2441   -1.6165    1.2011 C.2     1  LIG1      0.13999999999999968
      4 C           0.0513    0.7190    1.5053 C.2     1  LIG1       0.11000000000000032
      5 C5*         0.1595   -2.1990   -3.0417 C.3     1  LIG1       -0.07000000000000028
      6 C           0.7711    0.6671    2.6891 C.2     1  LIG1       0.040000000000000036
      7 C4*        -1.0112   -1.3424   -2.5499 C.3     1  LIG1       0.1200000000000001
      8 C3*        -0.8222    0.1584   -2.8156 C.3     1  LIG1       0.04999999999999982
      9 C2*        -0.2091    0.6583   -1.4963 C.3     1  LIG1       0.08999999999999986
     10 C           1.0586    1.9284    3.4447 C.3     1  LIG1       0.4800000000000004
     11 C1*        -0.9669   -0.2459   -0.4907 C.3     1  LIG1       0.2999999999999998
     12 N           1.0916    3.1201    3.0104 N.3     1  LIG1      -0.6699999999999999
     13 N          -0.1916   -0.4048    0.7909 N.pl3   1  LIG1      -0.4500000000000002
     14 O5*         0.2824   -2.0865   -4.4467 O.3     1  LIG1      -0.6500000000000004
     15 O3*        -2.0585    0.8589   -2.9170 O.3     1  LIG1      -0.6699999999999999
     16 O2*        -0.3627    2.0252   -1.2452 O.3     1  LIG1      -0.6500000000000004
     17 O           1.3118    1.6484    4.7398 O.3     1  LIG1      -0.5999999999999996
     18 O4*        -1.1256   -1.4840   -1.0954 O.3     1  LIG1      -0.5399999999999991
     19 H           1.2839   -2.7055    2.7154 H       1  LIG1       0.22999999999999998
     20 H           1.7473   -0.6507    4.0863 H       1  LIG1       0.22999999999999998
     21 H          -0.0063   -2.4498    0.5594 H       1  LIG1          0.26
     22 H          -0.3394    1.6373    1.0817 H       1  LIG1          0.27
     23 H5*1        1.0958   -1.8298   -2.6059 H       1  LIG1       0.17000000000000004
     24 H5*2        0.0240   -3.2340   -2.7005 H       1  LIG1       0.17000000000000004
     25 H4*        -1.9530   -1.6916   -2.9837 H       1  LIG1       0.18000000000000005
     26 H3*        -0.1763    0.3333   -3.6812 H       1  LIG1       0.18999999999999995
     27 H2*         0.8584    0.4158   -1.4543 H       1  LIG1       0.19999999999999996
     28 H1*        -1.9253    0.2054   -0.2051 H       1  LIG1       0.21999999999999997
     29 H           0.9281    3.2102    2.0085 H       1  LIG1          0.35
     30 H5*        -0.2753   -2.7564   -4.8708 H       1  LIG1       0.43999999999999995
     31 H3*        -2.3577    0.8671   -3.8389 H       1  LIG1       0.44999999999999996
     32 H2*        -1.1768    2.2943   -1.7153 H       1  LIG1       0.43999999999999995
     33 H           1.5249    2.4927    5.1817 H       1  LIG1       0.44999999999999996
@<TRIPOS>BOND
     1    30    14    1
     2    14     5    1
     3    31    15    1
     4    26     8    1
     5     5    24    1
     6     5    23    1
     7     5     7    1
     8    25     7    1
     9    15     8    1
    10     8     7    1
    11     8     9    1
    12     7    18    1
    13    32    16    1
    14     9    27    1
    15     9    16    1
    16     9    11    1
    17    18    11    1
    18    11    28    1
    19    11    13    1
    20    21     3    1
    21    13     3    1
    22    13     4    1
    23    22     4    1
    24     3     1    2
    25     4     6    2
    26    29    12    1
    27     1    19    1
    28     1     2    1
    29     6     2    1
    30     6    10    1
    31    12    10    1
    32     2    20    1
    33    10    17    1
    34    17    33    1
