@<TRIPOS>MOLECULE
JLVSPVFPBBFMBE-HXSWCURESA-O	6044715	-1732.8357288720297
 81 80 0 0 0
SMALL
MULLIKEN NwChem

@<TRIPOS>ATOM
      1 C           8.5081   -0.3910    6.5738 C.3     1  LIG1      -0.45999999999999996
      2 C          -2.7961    1.2082   -5.8697 C.3     1  LIG1      -0.3600000000000003
      3 C          -1.2954    0.3631   -7.6143 C.3     1  LIG1      -0.33000000000000007
      4 C          -2.7286   -1.2095   -6.3948 C.3     1  LIG1      -0.34999999999999964
      5 C           7.0399   -0.1412    6.9395 C.3     1  LIG1      -0.2599999999999998
      6 C           6.4869    1.1933    6.4115 C.3     1  LIG1      -0.2599999999999998
      7 C           6.4878    1.3458    4.8786 C.3     1  LIG1      -0.2699999999999996
      8 C           5.7144    0.2526    4.1193 C.3     1  LIG1      -0.2699999999999996
      9 C           4.2418    0.0904    4.5351 C.3     1  LIG1      -0.2699999999999996
     10 C           3.3853    1.3597    4.3811 C.3     1  LIG1      -0.2699999999999996
     11 C           3.2841    1.9070    2.9463 C.3     1  LIG1      -0.2699999999999996
     12 C           2.6985    0.9265    1.9144 C.3     1  LIG1      -0.2699999999999996
     13 C           1.3274    0.3403    2.2948 C.3     1  LIG1      -0.2699999999999996
     14 C           0.2492    1.3810    2.6349 C.3     1  LIG1      -0.2699999999999996
     15 C          -0.0770    2.3790    1.5127 C.3     1  LIG1      -0.2599999999999998
     16 C          -0.5842    1.7396    0.1983 C.3     1  LIG1      -0.3200000000000003
     17 C          -1.7633    0.8306    0.4188 C.2     1  LIG1      -0.08999999999999986
     18 C          -3.0329    1.2075    0.2537 C.2     1  LIG1      -0.16000000000000014
     19 C          -0.7420   -0.1154   -5.2772 C.3     1  LIG1      -0.16000000000000014
     20 C          -1.0896   -0.1224   -3.7939 C.3     1  LIG1       -0.08000000000000007
     21 C          -3.9382   -2.0172   -0.2922 C.3     1  LIG1       -0.04999999999999982
     22 C          -4.1252   -1.0826    0.9137 C.3     1  LIG1       -0.019999999999999574
     23 C          -4.2785    0.4194    0.5580 C.3     1  LIG1       0.09999999999999964
     24 N          -5.2517   -1.6539    1.6523 N.3     1  LIG1      -0.7800000000000002
     25 N          -1.9006    0.0586   -6.2651 N.4     1  LIG1       -0.3600000000000003
     26 O          -5.1590    0.6158   -0.5859 O.3     1  LIG1      -0.6899999999999995
     27 O          -4.3700   -2.0239   -3.3627 O.2     1  LIG1      -0.6199999999999992
     28 O          -3.6650    0.4264   -2.7720 O.3     1  LIG1      -0.7200000000000006
     29 O          -1.9398   -1.2223   -3.5028 O.3     1  LIG1      -0.5500000000000007
     30 O          -2.9469   -1.5102   -1.2253 O.3     1  LIG1      -0.5299999999999994
     31 P          -3.3598   -1.1522   -2.7266 P.3     1  LIG1       1.2599999999999998
     32 H           8.6500   -0.4635    5.4895 H       1  LIG1       0.15000000000000002
     33 H           8.8767   -1.3233    7.0166 H       1  LIG1          0.14
     34 H           9.1436    0.4265    6.9367 H       1  LIG1          0.14
     35 H          -2.1851    2.1065   -5.7654 H       1  LIG1       0.21999999999999997
     36 H          -3.5317    1.3519   -6.6623 H       1  LIG1       0.21999999999999997
     37 H          -3.3025    0.9815   -4.9315 H       1  LIG1          0.24
     38 H          -0.6241   -0.4509   -7.8932 H       1  LIG1       0.21999999999999997
     39 H          -2.0962    0.4512   -8.3491 H       1  LIG1       0.21999999999999997
     40 H          -0.7413    1.3016   -7.5540 H       1  LIG1       0.21999999999999997
     41 H          -2.0635   -2.0289   -6.6713 H       1  LIG1       0.21999999999999997
     42 H          -3.2297   -1.4386   -5.4571 H       1  LIG1       0.22999999999999998
     43 H          -3.4670   -1.0444   -7.1817 H       1  LIG1       0.21999999999999997
     44 H           6.4231   -0.9722    6.5726 H       1  LIG1          0.14
     45 H           6.9360   -0.1512    8.0321 H       1  LIG1          0.13
     46 H           5.4645    1.3290    6.7899 H       1  LIG1          0.14
     47 H           7.0771    2.0142    6.8425 H       1  LIG1          0.13
     48 H           6.0751    2.3322    4.6263 H       1  LIG1          0.14
     49 H           7.5225    1.3579    4.5123 H       1  LIG1          0.13
     50 H           5.7681    0.4671    3.0431 H       1  LIG1          0.14
     51 H           6.2224   -0.7118    4.2541 H       1  LIG1          0.13
     52 H           3.7987   -0.7270    3.9498 H       1  LIG1          0.14
     53 H           4.1914   -0.2341    5.5821 H       1  LIG1          0.14
     54 H           2.3785    1.1506    4.7672 H       1  LIG1          0.14
     55 H           3.7894    2.1512    5.0237 H       1  LIG1          0.14
     56 H           2.6769    2.8215    2.9636 H       1  LIG1          0.14
     57 H           4.2786    2.2218    2.6058 H       1  LIG1          0.13
     58 H           2.6263    1.4411    0.9455 H       1  LIG1          0.13
     59 H           3.3992    0.0959    1.7582 H       1  LIG1          0.14
     60 H           0.9759   -0.3034    1.4753 H       1  LIG1          0.14
     61 H           1.4491   -0.3243    3.1594 H       1  LIG1          0.14
     62 H          -0.6701    0.8576    2.9297 H       1  LIG1          0.13
     63 H           0.5613    1.9514    3.5173 H       1  LIG1          0.14
     64 H          -0.8506    3.0700    1.8727 H       1  LIG1          0.13
     65 H           0.8056    2.9905    1.2862 H       1  LIG1          0.14
     66 H          -0.8590    2.5419   -0.4985 H       1  LIG1       0.15000000000000002
     67 H           0.2317    1.1723   -0.2708 H       1  LIG1       0.15000000000000002
     68 H          -1.5324   -0.1714    0.7746 H       1  LIG1       0.16000000000000003
     69 H          -3.2459    2.2187   -0.0959 H       1  LIG1          0.14
     70 H          -0.0532    0.7131   -5.4640 H       1  LIG1       0.22999999999999998
     71 H          -0.2504   -1.0504   -5.5565 H       1  LIG1       0.22999999999999998
     72 H          -1.5272    0.8238   -3.4656 H       1  LIG1       0.20999999999999996
     73 H          -0.1433   -0.2557   -3.2556 H       1  LIG1       0.20999999999999996
     74 H          -3.5849   -2.9892    0.0526 H       1  LIG1       0.18999999999999995
     75 H          -4.8881   -2.1691   -0.8139 H       1  LIG1       0.18000000000000005
     76 H          -3.2498   -1.1665    1.5666 H       1  LIG1       0.17000000000000004
     77 H          -4.7687    0.8963    1.4222 H       1  LIG1       0.17000000000000004
     78 H          -5.3498   -1.2421    2.5766 H       1  LIG1       0.33999999999999997
     79 H          -6.1356   -1.5357    1.1609 H       1  LIG1       0.33999999999999997
     80 H          -4.3173    0.6585   -2.0523 H       1  LIG1          0.49
     81 H          -6.0512    0.2946   -0.3818 H       1  LIG1       0.44999999999999996
@<TRIPOS>BOND
     1    39     3    1
     2    38     3    1
     3     3    40    1
     4     3    25    1
     5    43     4    1
     6    41     4    1
     7    36     2    1
     8     4    25    1
     9     4    42    1
    10    25     2    1
    11    25    19    1
    12     2    35    1
    13     2    37    1
    14    71    19    1
    15    70    19    1
    16    19    20    1
    17    20    29    1
    18    20    72    1
    19    20    73    1
    20    29    31    1
    21    27    31    2
    22    28    31    1
    23    28    80    1
    24    31    30    1
    25    30    21    1
    26    75    21    1
    27    26    81    1
    28    26    23    1
    29    66    16    1
    30    21    74    1
    31    21    22    1
    32    67    16    1
    33    69    18    1
    34    16    17    1
    35    16    15    1
    36    18    17    2
    37    18    23    1
    38    17    68    1
    39    23    22    1
    40    23    77    1
    41    22    76    1
    42    22    24    1
    43    58    12    1
    44    79    24    1
    45    65    15    1
    46    60    13    1
    47    15    64    1
    48    15    14    1
    49    24    78    1
    50    59    12    1
    51    12    13    1
    52    12    11    1
    53    13    14    1
    54    13    61    1
    55    57    11    1
    56    14    62    1
    57    14    63    1
    58    11    56    1
    59    11    10    1
    60    50     8    1
    61    52     9    1
    62     8    51    1
    63     8     9    1
    64     8     7    1
    65    10     9    1
    66    10    54    1
    67    10    55    1
    68    49     7    1
    69     9    53    1
    70    48     7    1
    71     7     6    1
    72    32     1    1
    73     6    46    1
    74     6    47    1
    75     6     5    1
    76    44     5    1
    77     1    34    1
    78     1     5    1
    79     1    33    1
    80     5    45    1
