@<TRIPOS>MOLECULE
JOUIQRNQJGXQDC-ZYUZMQFOSA-L	11095322	-1499.669550120565
 34 35 0 0 0
SMALL
MULLIKEN NwChem

@<TRIPOS>ATOM
      1 C          -2.8805    1.5888   -1.3714 C.2     1  LIG1      -0.1900000000000004
      2 C          -4.1722    1.2248   -0.9892 C.3     1  LIG1       -0.11000000000000032
      3 C          -1.7945    1.0741   -0.6803 C.2     1  LIG1      0.1200000000000001
      4 C          -3.2349   -0.1450    0.7208 C.2     1  LIG1       0.08000000000000007
      5 C           1.9896    1.4404   -0.2745 C.3     1  LIG1       -0.040000000000000036
      6 C          -4.3642    0.3457    0.0794 C.2     1  LIG1           0.0
      7 C           1.4365    0.1821    0.3999 C.3     1  LIG1       0.08999999999999986
      8 C           1.0463   -0.9847   -0.5454 C.3     1  LIG1       0.13999999999999968
      9 C          -0.2382   -1.5756    0.1971 C.3     1  LIG1       0.08999999999999986
     10 C          -0.7590   -0.3959    1.0329 C.3     1  LIG1       0.23000000000000043
     11 C          -5.7911   -0.0595    0.5641 C.2     1  LIG1       0.5199999999999996
     12 N          -1.9894    0.2183    0.3450 N.pl3   1  LIG1      -0.41000000000000014
     13 O           1.9675   -1.9735   -0.6221 O.3     1  LIG1      -0.7699999999999996
     14 O           0.2416   -2.5963    1.0150 O.3     1  LIG1      -0.7200000000000006
     15 O          -6.7186    0.4473   -0.1073 O.co2   1  LIG1      -0.6500000000000004
     16 O          -5.7980   -0.8242    1.5545 O.co2   1  LIG1      -0.6400000000000006
     17 O           4.4421   -0.9311   -1.0698 O.3     1  LIG1      -0.7699999999999996
     18 O           4.4533    0.7845    0.8975 O.3     1  LIG1      -0.7300000000000004
     19 O           5.5763    1.3267   -1.4296 O.2     1  LIG1      -0.6899999999999995
     20 O           3.0015    1.1589   -1.2025 O.3     1  LIG1      -0.6199999999999992
     21 O           0.2142    0.5764    1.1385 O.3     1  LIG1      -0.5399999999999991
     22 P           4.5298    0.6317   -0.6060 P.3     1  LIG1       1.0500000000000007
     23 H          -2.6974    2.2714   -2.1956 H       1  LIG1       0.20999999999999996
     24 H          -5.0628    1.6007   -1.4845 H       1  LIG1       0.18999999999999995
     25 H          -0.7638    1.3181   -0.8986 H       1  LIG1          0.24
     26 H          -3.3364   -0.8323    1.5533 H       1  LIG1       0.22999999999999998
     27 H           1.1689    1.9269   -0.8350 H       1  LIG1       0.15000000000000002
     28 H           2.3241    2.1412    0.5038 H       1  LIG1          0.14
     29 H           2.1617   -0.1861    1.1280 H       1  LIG1       0.15000000000000002
     30 H           0.7340   -0.5589   -1.5278 H       1  LIG1       0.08999999999999997
     31 H          -1.0202   -1.9307   -0.4993 H       1  LIG1          0.14
     32 H          -1.1313   -0.7085    2.0153 H       1  LIG1       0.18999999999999995
     33 H           3.5442   -1.3251   -0.8567 H       1  LIG1       0.43999999999999995
     34 H           1.1694   -2.6894    0.5592 H       1  LIG1            0.4
@<TRIPOS>BOND
     1    23     1    1
     2    30     8    1
     3    24     2    1
     4    19    22    2
     5     1     2    1
     6     1     3    2
     7    20    22    1
     8    20     5    1
     9    17    33    1
    10    17    22    1
    11     2     6    1
    12    25     3    1
    13    27     5    1
    14     3    12    1
    15    13     8    1
    16    22    18    1
    17     8     9    1
    18     8     7    1
    19    31     9    1
    20     5     7    1
    21     5    28    1
    22    15    11   ar
    23     6    11    1
    24     6     4    2
    25     9    14    1
    26     9    10    1
    27    12     4    1
    28    12    10    1
    29     7    29    1
    30     7    21    1
    31    34    14    1
    32    11    16   ar
    33     4    26    1
    34    10    21    1
    35    10    32    1
