@<TRIPOS>MOLECULE
JPXZQMKKFWMMGK-KQYNXXCUSA-K	11095320	-2117.289477955042
 38 40 0 0 0
SMALL
MULLIKEN NwChem

@<TRIPOS>ATOM
      1 C           1.0549    0.2360   -1.0713 C.3     1  LIG1       -0.07000000000000028
      2 C          -6.6570    1.2752   -0.2960 C.ar    1  LIG1       0.1299999999999999
      3 C          -3.2639   -1.4493   -0.2327 C.ar    1  LIG1       0.1900000000000004
      4 C          -0.0110    0.8493   -0.1636 C.3     1  LIG1       0.13999999999999968
      5 C          -5.3601   -1.0383   -0.4099 C.ar    1  LIG1       0.09999999999999964
      6 C          -0.2285    0.1976    1.2157 C.3     1  LIG1       0.08999999999999986
      7 C          -1.6430    0.7120    1.5604 C.3     1  LIG1       0.07000000000000028
      8 C          -4.7391    0.1981   -0.2110 C.ar    1  LIG1       0.4800000000000004
      9 C          -6.8097   -1.0723   -0.5629 C.ar    1  LIG1       0.45999999999999996
     10 C          -2.3246    0.8739    0.1763 C.3     1  LIG1       0.2699999999999996
     11 N          -5.3265    1.4110   -0.1399 N.ar    1  LIG1      -0.5800000000000001
     12 N          -7.4112    0.1983   -0.4897 N.ar    1  LIG1      -0.5700000000000003
     13 N          -4.4099   -2.0591   -0.4225 N.ar    1  LIG1      -0.5800000000000001
     14 N          -3.3810   -0.0768   -0.0965 N.ar    1  LIG1         -0.5
     15 O           0.6546    0.5982    2.2238 O.3     1  LIG1      -0.7300000000000004
     16 O          -1.5207    1.9815    2.1916 O.3     1  LIG1      -0.6999999999999993
     17 O          -7.4889   -2.1003   -0.7404 O.2     1  LIG1      -0.6699999999999999
     18 O           5.6900   -0.7238   -2.0219 O.3     1  LIG1        -0.75
     19 O           6.8505    1.3713   -1.1059 O.2     1  LIG1      -0.6799999999999997
     20 O           6.9165   -0.8708    0.2696 O.3     1  LIG1      -0.6899999999999995
     21 O           3.4571   -1.6547   -0.7607 O.2     1  LIG1      -0.7100000000000009
     22 O           2.8336   -0.5240    1.5086 O.3     1  LIG1      -0.6999999999999993
     23 O           2.3458    0.6888   -0.7042 O.3     1  LIG1      -0.5800000000000001
     24 O          -1.2939    0.7196   -0.8057 O.3     1  LIG1      -0.5500000000000007
     25 O           4.7020    0.4819    0.0302 O.3     1  LIG1      -0.6500000000000004
     26 P           6.2301    0.0706   -0.6822 P.3     1  LIG1       1.0500000000000007
     27 P           3.3607   -0.3987    0.0824 P.3     1  LIG1       1.1400000000000006
     28 H           0.9889   -0.8604   -1.0624 H       1  LIG1       0.16000000000000003
     29 H           0.8530    0.5685   -2.1000 H       1  LIG1       0.16000000000000003
     30 H          -7.2076    2.2247   -0.2534 H       1  LIG1          0.13
     31 H          -2.2892   -1.9201   -0.2077 H       1  LIG1       0.19999999999999996
     32 H           0.2358    1.9106   -0.0065 H       1  LIG1          0.14
     33 H          -0.2426   -0.8977    1.0853 H       1  LIG1       0.15000000000000002
     34 H          -2.2129    0.0200    2.1968 H       1  LIG1       0.16000000000000003
     35 H          -2.7844    1.8663    0.1188 H       1  LIG1       0.17000000000000004
     36 H           1.5827    0.2336    1.9748 H       1  LIG1          0.47
     37 H          -0.6029    1.9539    2.5387 H       1  LIG1       0.43000000000000005
     38 H           4.9221   -1.2798   -1.7290 H       1  LIG1       0.44999999999999996
@<TRIPOS>BOND
     1    29     1    1
     2    18    38    1
     3    18    26    1
     4    19    26    2
     5     1    28    1
     6     1    23    1
     7     1     4    1
     8    24     4    1
     9    24    10    1
    10    21    27    2
    11    17     9    2
    12    23    27    1
    13    26    25    1
    14    26    20    1
    15     9    12   ar
    16     9     5   ar
    17    12     2   ar
    18    13     5   ar
    19    13     3   ar
    20     5     8   ar
    21     2    30    1
    22     2    11   ar
    23     3    31    1
    24     3    14   ar
    25     8    11   ar
    26     8    14   ar
    27     4    32    1
    28     4     6    1
    29    14    10    1
    30    25    27    1
    31    27    22    1
    32    35    10    1
    33    10     7    1
    34    33     6    1
    35     6     7    1
    36     6    15    1
    37     7    16    1
    38     7    34    1
    39    36    15    1
    40    16    37    1
