@<TRIPOS>MOLECULE
JRLGPAXAGHMNOL-LURJTMIESA-N	6044721	-610.1839665201028
 26 25 0 0 0
SMALL
MULLIKEN NwChem

@<TRIPOS>ATOM
      1 C           0.8194   -1.7480    1.2420 C.3     1  LIG1       -0.5300000000000002
      2 C           1.5213    0.9664   -0.9995 C.3     1  LIG1      -0.2599999999999998
      3 C           0.2407    1.6636   -0.5137 C.3     1  LIG1      -0.2699999999999996
      4 C           1.3528   -0.0808   -2.1114 C.3     1  LIG1      -0.15000000000000036
      5 C           0.5496   -0.4775    2.0045 C.2     1  LIG1       0.5199999999999996
      6 CA         -0.6994    0.8806    0.4331 C.3     1  LIG1       -0.08000000000000007
      7 C          -1.4839   -0.2312   -0.2693 C.2     1  LIG1       0.5999999999999996
      8 N           0.6763    0.4916   -3.2801 N.3     1  LIG1        -0.79
      9 N          -0.0761    0.5895    1.7098 N.2     1  LIG1      -0.5099999999999998
     10 O           1.0923   -0.5654    3.2492 O.2     1  LIG1      -0.6099999999999994
     11 O          -1.7054   -0.2859   -1.4625 O.2     1  LIG1      -0.5099999999999998
     12 OXT        -2.0350   -1.1105    0.5997 O.3     1  LIG1      -0.5800000000000001
     13 H           0.6389   -1.6376    0.1745 H       1  LIG1       0.18000000000000005
     14 H           0.1735   -2.5436    1.6275 H       1  LIG1       0.19999999999999996
     15 H           1.8593   -2.0481    1.3995 H       1  LIG1       0.18999999999999995
     16 H           2.1815    1.7486   -1.3929 H       1  LIG1          0.14
     17 H           2.0447    0.5154   -0.1457 H       1  LIG1          0.14
     18 H          -0.3417    2.0065   -1.3746 H       1  LIG1       0.15000000000000002
     19 H           0.5321    2.5604    0.0445 H       1  LIG1       0.15000000000000002
     20 H           2.3549   -0.4055   -2.4189 H       1  LIG1          0.14
     21 H           0.8431   -0.9780   -1.7209 H       1  LIG1          0.14
     22 HA         -1.5128    1.5858    0.6731 H       1  LIG1       0.19999999999999996
     23 H           0.7991   -0.1289   -4.0784 H       1  LIG1       0.31999999999999995
     24 H          -0.3246    0.5018   -3.0896 H       1  LIG1       0.32999999999999996
     25 H           0.8577    0.2729    3.6905 H       1  LIG1       0.43000000000000005
     26 HXT        -2.5761   -1.7185    0.0609 H       1  LIG1       0.44999999999999996
@<TRIPOS>BOND
     1    23     8    1
     2     8    24    1
     3     8     4    1
     4    20     4    1
     5     4    21    1
     6     4     2    1
     7    11     7    2
     8    16     2    1
     9    18     3    1
    10     2     3    1
    11     2    17    1
    12     3    19    1
    13     3     6    1
    14     7     6    1
    15     7    12    1
    16    26    12    1
    17    13     1    1
    18     6    22    1
    19     6     9    1
    20     1    15    1
    21     1    14    1
    22     1     5    1
    23     9     5    2
    24     5    10    1
    25    10    25    1
