@<TRIPOS>MOLECULE
JSRLJPSBLDHEIO-SHYZEUOFSA-L	11095319	-1402.4473390620576
 31 32 0 0 0
SMALL
MULLIKEN NwChem

@<TRIPOS>ATOM
      1 C          -2.4601    1.5422   -2.6356 C.ar    1  LIG1       -0.2999999999999998
      2 C          -1.8743    1.0119   -1.5376 C.ar    1  LIG1       0.08000000000000007
      3 C          -0.5165   -1.8718   -0.2389 C.3     1  LIG1       -0.3200000000000003
      4 C           1.0990    1.2285    1.0881 C.3     1  LIG1       -0.05999999999999961
      5 C           0.7938   -1.0990   -0.0266 C.3     1  LIG1       0.1299999999999999
      6 C           0.3896   -0.1307    1.1028 C.3     1  LIG1       0.08999999999999986
      7 C          -3.5048    0.7836   -3.3492 C.ar    1  LIG1       0.5099999999999998
      8 C          -1.6236   -0.8607    0.0932 C.3     1  LIG1       0.29000000000000004
      9 C          -3.2252   -1.0056   -1.8027 C.ar    1  LIG1       0.6799999999999997
     10 N          -3.8254   -0.4678   -2.8780 N.ar    1  LIG1      -0.6699999999999999
     11 N          -2.2271   -0.2305   -1.0898 N.ar    1  LIG1         -0.5
     12 O           1.8514   -1.9755    0.2846 O.3     1  LIG1      -0.7400000000000002
     13 O          -4.0676    1.2862   -4.3457 O.2     1  LIG1      -0.6799999999999997
     14 O          -3.4456   -2.1443   -1.3415 O.2     1  LIG1      -0.6600000000000001
     15 O           3.2873   -0.9149    2.3660 O.2     1  LIG1      -0.6999999999999993
     16 O           4.8589    1.0426    1.8579 O.3     1  LIG1      -0.7100000000000009
     17 O           2.9372    1.4379    3.5351 O.3     1  LIG1      -0.6899999999999995
     18 O           2.5145    1.1215    0.9999 O.3     1  LIG1      -0.5800000000000001
     19 O          -1.0187    0.1254    0.9357 O.3     1  LIG1      -0.5600000000000005
     20 P           3.3372    0.5943    2.3567 P.3     1  LIG1       1.0700000000000003
     21 H          -2.1934    2.5322   -2.9929 H       1  LIG1          0.13
     22 H          -1.1283    1.5274   -0.9433 H       1  LIG1       0.18999999999999995
     23 H          -0.6478   -2.2921   -1.2369 H       1  LIG1       0.17000000000000004
     24 H          -0.5293   -2.6939    0.4862 H       1  LIG1       0.16000000000000003
     25 H           0.8104    1.8120    1.9723 H       1  LIG1       0.15000000000000002
     26 H           0.7740    1.7693    0.1911 H       1  LIG1       0.17000000000000004
     27 H           1.0296   -0.5007   -0.9256 H       1  LIG1          0.13
     28 H           0.5595   -0.6367    2.0640 H       1  LIG1       0.15000000000000002
     29 H          -2.4478   -1.3377    0.6281 H       1  LIG1       0.16000000000000003
     30 H           2.4345   -1.5594    0.9715 H       1  LIG1       0.44999999999999996
     31 H           4.9326    1.9802    2.0946 H       1  LIG1       0.44999999999999996
@<TRIPOS>BOND
     1    13     7    2
     2     7    10   ar
     3     7     1   ar
     4    21     1    1
     5    10     9   ar
     6     1     2   ar
     7     9    14    2
     8     9    11   ar
     9     2    11   ar
    10     2    22    1
    11    23     3    1
    12    11     8    1
    13    27     5    1
    14     3     5    1
    15     3     8    1
    16     3    24    1
    17     5    12    1
    18     5     6    1
    19     8    29    1
    20     8    19    1
    21    26     4    1
    22    12    30    1
    23    19     6    1
    24    18     4    1
    25    18    20    1
    26     4     6    1
    27     4    25    1
    28     6    28    1
    29    16    31    1
    30    16    20    1
    31    20    15    2
    32    20    17    1
