@<TRIPOS>MOLECULE
JTEGNNHWOIJBJZ-ZJSQCTGTSA-M	11095318	-928.7679440544526
 50 50 0 0 0
SMALL
MULLIKEN NwChem

@<TRIPOS>ATOM
      1 C           8.6845    0.5824    0.2346 C.3     1  LIG1      -0.4500000000000002
      2 C           7.5482   -0.0843    1.0312 C.3     1  LIG1      -0.2999999999999998
      3 C           6.4354    0.8833    1.3372 C.2     1  LIG1      -0.1200000000000001
      4 C           5.1880    0.8789    0.8522 C.2     1  LIG1      -0.1200000000000001
      5 C           4.5748   -0.0969   -0.1255 C.3     1  LIG1      -0.3700000000000001
      6 C          -3.1538   -1.4076    0.3789 C.3     1  LIG1      -0.2599999999999998
      7 C           4.3683    0.5612   -1.4725 C.2     1  LIG1      -0.11000000000000032
      8 C          -2.4793   -0.1633   -0.2177 C.3     1  LIG1      -0.2699999999999996
      9 C          -4.5224   -1.7466   -0.2519 C.3     1  LIG1      -0.2699999999999996
     10 C           3.2046    0.9543   -2.0016 C.2     1  LIG1      -0.13999999999999968
     11 C          -1.2156    0.2941    0.5295 C.3     1  LIG1      -0.2699999999999996
     12 C          -5.7367   -1.0570    0.3940 C.3     1  LIG1        -0.25
     13 C           1.8400    0.7950   -1.3666 C.3     1  LIG1      -0.33999999999999986
     14 C          -0.0875   -0.7520    0.6228 C.3     1  LIG1      -0.2999999999999998
     15 C          -5.7903    0.4706    0.3298 C.3     1  LIG1       -0.3600000000000003
     16 C           1.2234   -0.5619   -1.6597 C.3     1  LIG1       0.08999999999999986
     17 C           0.3359   -1.2818   -0.7300 C.3     1  LIG1       0.08000000000000007
     18 C          -7.2121    1.0664    0.6967 C.2     1  LIG1       0.5199999999999996
     19 O          -7.1854    2.2227    1.1817 O.co2   1  LIG1      -0.6899999999999995
     20 O          -8.1919    0.3246    0.4273 O.co2   1  LIG1      -0.6699999999999999
     21 O           1.7166   -1.6804   -0.9020 O.3     1  LIG1      -0.5199999999999996
     22 H           9.5118   -0.1158    0.0596 H       1  LIG1       0.15000000000000002
     23 H           9.0843    1.4515    0.7713 H       1  LIG1       0.15000000000000002
     24 H           8.3194    0.9337   -0.7371 H       1  LIG1       0.15000000000000002
     25 H           7.1742   -0.9502    0.4744 H       1  LIG1       0.15000000000000002
     26 H           7.9580   -0.4756    1.9741 H       1  LIG1       0.15000000000000002
     27 H           6.7134    1.6940    2.0140 H       1  LIG1          0.13
     28 H           4.5217    1.6884    1.1526 H       1  LIG1          0.13
     29 H           3.6223   -0.4776    0.2571 H       1  LIG1       0.16000000000000003
     30 H           5.2194   -0.9740   -0.2573 H       1  LIG1       0.16000000000000003
     31 H          -2.4743   -2.2670    0.2683 H       1  LIG1          0.14
     32 H          -3.2847   -1.2621    1.4620 H       1  LIG1          0.13
     33 H           5.2839    0.7536   -2.0334 H       1  LIG1          0.14
     34 H          -2.2357   -0.3593   -1.2732 H       1  LIG1          0.13
     35 H          -3.1956    0.6631   -0.2226 H       1  LIG1       0.15000000000000002
     36 H          -4.6699   -2.8366   -0.1970 H       1  LIG1          0.12
     37 H          -4.4885   -1.5028   -1.3259 H       1  LIG1          0.12
     38 H           3.2203    1.4098   -2.9920 H       1  LIG1          0.14
     39 H          -0.8175    1.1952    0.0415 H       1  LIG1          0.14
     40 H          -1.4946    0.5934    1.5489 H       1  LIG1          0.14
     41 H          -5.7969   -1.3746    1.4473 H       1  LIG1          0.12
     42 H          -6.6610   -1.4145   -0.0749 H       1  LIG1          0.12
     43 H           1.1621    1.5679   -1.7520 H       1  LIG1       0.17000000000000004
     44 H           1.8965    0.9384   -0.2843 H       1  LIG1       0.17000000000000004
     45 H          -0.4099   -1.5998    1.2401 H       1  LIG1       0.15000000000000002
     46 H           0.7856   -0.3201    1.1250 H       1  LIG1       0.15000000000000002
     47 H          -5.0462    0.9395    0.9870 H       1  LIG1          0.12
     48 H          -5.5565    0.8004   -0.6974 H       1  LIG1          0.13
     49 H           1.1122   -0.7765   -2.7267 H       1  LIG1       0.16000000000000003
     50 H          -0.3692   -1.9822   -1.1828 H       1  LIG1       0.16000000000000003
@<TRIPOS>BOND
     1    38    10    1
     2    49    16    1
     3    33     7    1
     4    10     7    2
     5    10    13    1
     6    43    13    1
     7    16    13    1
     8    16    21    1
     9    16    17    1
    10     7     5    1
    11    13    44    1
    12    37     9    1
    13    34     8    1
    14    50    17    1
    15    21    17    1
    16    24     1    1
    17    17    14    1
    18    48    15    1
    19    30     5    1
    20     9    36    1
    21     9     6    1
    22     9    12    1
    23    35     8    1
    24     8     6    1
    25     8    11    1
    26     5    29    1
    27     5     4    1
    28    42    12    1
    29    39    11    1
    30    22     1    1
    31     1    23    1
    32     1     2    1
    33    31     6    1
    34    15    12    1
    35    15    18    1
    36    15    47    1
    37     6    32    1
    38    12    41    1
    39    20    18   ar
    40    25     2    1
    41    11    14    1
    42    11    40    1
    43    14    46    1
    44    14    45    1
    45    18    19   ar
    46     4    28    1
    47     4     3    2
    48     2     3    1
    49     2    26    1
    50     3    27    1
