@<TRIPOS>MOLECULE
JTEYKUFKXGDTEU-VKHMYHEASA-M	6044724	-496.89728062548687
 18 17 0 0 0
SMALL
MULLIKEN NwChem

@<TRIPOS>ATOM
      1 C          -0.6009    0.4506    1.7363 C.3     1  LIG1      -0.46999999999999975
      2 C          -2.2838   -0.8647    0.3972 C.3     1  LIG1      -0.45999999999999996
      3 C          -0.2427    0.0845   -0.7470 C.3     1  LIG1       0.019999999999999574
      4 C           1.2812    0.4210   -0.6180 C.2     1  LIG1       0.5599999999999996
      5 C          -0.8009   -0.5273    0.5655 C.3     1  LIG1       0.3200000000000003
      6 O          -0.9425    1.2601   -1.1216 O.3     1  LIG1      -0.6999999999999993
      7 O           2.0290   -0.4877   -0.1574 O.co2   1  LIG1      -0.6500000000000004
      8 O           1.5919    1.5840   -0.9836 O.co2   1  LIG1      -0.6500000000000004
      9 O          -0.1180   -1.7538    0.8221 O.3     1  LIG1      -0.7400000000000002
     10 H          -1.0478    1.4240    1.5056 H       1  LIG1       0.15000000000000002
     11 H           0.4700    0.5894    1.9165 H       1  LIG1          0.14
     12 H          -1.0555    0.0473    2.6501 H       1  LIG1          0.14
     13 H          -2.8594    0.0386    0.1721 H       1  LIG1       0.15000000000000002
     14 H          -2.4106   -1.5792   -0.4247 H       1  LIG1          0.14
     15 H          -2.6738   -1.3266    1.3138 H       1  LIG1          0.14
     16 H          -0.3506   -0.6947   -1.5231 H       1  LIG1          0.12
     17 H          -0.1738    1.8783   -1.2271 H       1  LIG1           0.4
     18 H           0.8211   -1.5408    0.5692 H       1  LIG1       0.41000000000000003
@<TRIPOS>BOND
     1    16     3    1
     2    17     6    1
     3     6     3    1
     4     8     4   ar
     5     3     4    1
     6     3     5    1
     7     4     7   ar
     8    14     2    1
     9    13     2    1
    10     2     5    1
    11     2    15    1
    12     5     9    1
    13     5     1    1
    14    18     9    1
    15    10     1    1
    16     1    11    1
    17     1    12    1
