@<TRIPOS>MOLECULE
JTFITTQBRJDSTL-KVTDHHQDSA-L	11095317	-1501.5585707727673
 26 26 0 0 0
SMALL
MULLIKEN NwChem

@<TRIPOS>ATOM
      1 C           4.6769    0.7894   -0.1011 C.3     1  LIG1      -0.5999999999999996
      2 C           2.6580   -0.6444    1.1925 C.3     1  LIG1       -0.45999999999999996
      3 C           1.3690   -0.3554    0.4234 C.3     1  LIG1       0.15000000000000036
      4 C           1.3599    0.6896   -0.6947 C.3     1  LIG1       0.08999999999999986
      5 C          -0.1982    1.0090   -0.8313 C.3     1  LIG1       0.13999999999999968
      6 C          -0.7936    0.3402    0.4749 C.3     1  LIG1       0.33000000000000007
      7 O           1.8215    0.2302   -1.9387 O.3     1  LIG1      -0.7400000000000002
      8 O          -0.6097    0.5492   -2.0433 O.3     1  LIG1      -0.7799999999999994
      9 O          -3.7170    0.2817    0.4465 O.3     1  LIG1      -0.7200000000000006
     10 O          -2.9050   -0.7565   -1.8030 O.3     1  LIG1      -0.7699999999999996
     11 O          -3.5423   -2.3260    0.1335 O.2     1  LIG1      -0.6999999999999993
     12 O           0.3597    0.1048    1.3191 O.3     1  LIG1      -0.5500000000000007
     13 O          -1.4123   -0.8883    0.2430 O.3     1  LIG1      -0.6199999999999992
     14 P          -3.0682   -0.9319   -0.1840 P.3     1  LIG1           1.0
     15 S           3.8239    0.7571    1.5240 S.3     1  LIG1          0.0
     16 H           5.2416    1.7256   -0.1694 H       1  LIG1       0.18999999999999995
     17 H           3.9448    0.7434   -0.9134 H       1  LIG1       0.20999999999999996
     18 H           5.3741   -0.0530   -0.1945 H       1  LIG1       0.18999999999999995
     19 H           3.2441   -1.4021    0.6599 H       1  LIG1       0.18999999999999995
     20 H           2.3965   -1.0506    2.1756 H       1  LIG1       0.18999999999999995
     21 H           1.0530   -1.3125   -0.0231 H       1  LIG1          0.13
     22 H           1.9113    1.5824   -0.3628 H       1  LIG1          0.12
     23 H          -0.3370    2.1123   -0.7044 H       1  LIG1       0.06000000000000005
     24 H          -1.4599    1.0056    1.0332 H       1  LIG1          0.12
     25 H           0.8826    0.1838   -2.3874 H       1  LIG1          0.39
     26 H          -2.0377   -0.2573   -1.9633 H       1  LIG1       0.43000000000000005
@<TRIPOS>BOND
     1    25     7    1
     2     8     5    1
     3    26    10    1
     4     7     4    1
     5    10    14    1
     6    17     1    1
     7     5    23    1
     8     5     4    1
     9     5     6    1
    10     4    22    1
    11     4     3    1
    12    18     1    1
    13    14    11    2
    14    14    13    1
    15    14     9    1
    16    16     1    1
    17     1    15    1
    18    21     3    1
    19    13     6    1
    20     3     2    1
    21     3    12    1
    22     6    24    1
    23     6    12    1
    24    19     2    1
    25     2    15    1
    26     2    20    1
