@<TRIPOS>MOLECULE
JTTHKOPSMAVJFE-VIFPVBQESA-N	6044726	-593.9437410536784
 26 26 0 0 0
SMALL
MULLIKEN NwChem

@<TRIPOS>ATOM
      1 C          -3.3311   -1.5642    0.6142 C.ar    1  LIG1      -0.15000000000000036
      2 C          -2.7605   -0.4387    1.2102 C.ar    1  LIG1      -0.15000000000000036
      3 C          -2.5055   -2.5212    0.0191 C.ar    1  LIG1      -0.15000000000000036
      4 C          -1.3739   -0.2707    1.2130 C.ar    1  LIG1      -0.20999999999999996
      5 C          -1.1215   -2.3496    0.0235 C.ar    1  LIG1      -0.20000000000000018
      6 C           0.9675   -1.0380    0.5806 C.3     1  LIG1      -0.3600000000000003
      7 C           1.4683   -0.4793   -0.7677 C.3     1  LIG1      -0.2699999999999996
      8 C          -0.5355   -1.2243    0.6202 C.ar    1  LIG1      0.15000000000000036
      9 CA          1.0089    0.9569   -1.1069 C.3     1  LIG1       -0.04999999999999982
     10 C           1.6888    1.9459   -0.1593 C.2     1  LIG1       0.5800000000000001
     11 N           1.3190    1.2399   -2.5073 N.3     1  LIG1      -0.7599999999999998
     12 O           2.7460    2.4955   -0.3814 O.2     1  LIG1      -0.5199999999999996
     13 OXT         0.9984    2.1398    0.9954 O.3     1  LIG1      -0.5700000000000003
     14 H          -4.4098   -1.6967    0.6146 H       1  LIG1       0.15000000000000002
     15 H          -3.3947    0.3112    1.6764 H       1  LIG1       0.15000000000000002
     16 H          -2.9395   -3.4031   -0.4450 H       1  LIG1       0.15000000000000002
     17 H          -0.9330    0.6108    1.6698 H       1  LIG1       0.15000000000000002
     18 H          -0.4830   -3.1000   -0.4390 H       1  LIG1       0.15000000000000002
     19 H           1.2859   -0.3834    1.3990 H       1  LIG1       0.16000000000000003
     20 H           1.4586   -2.0056    0.7436 H       1  LIG1       0.16000000000000003
     21 H           2.5663   -0.5081   -0.7935 H       1  LIG1       0.16000000000000003
     22 H           1.1097   -1.1135   -1.5858 H       1  LIG1       0.16000000000000003
     23 HA         -0.0746    1.0221   -0.9643 H       1  LIG1       0.17000000000000004
     24 H1          0.9418    2.1529   -2.7599 H       1  LIG1       0.32999999999999996
     25 H2          2.3315    1.3370   -2.5942 H       1  LIG1       0.31999999999999995
     26 HXT         1.5334    2.7520    1.5367 H       1  LIG1       0.43999999999999995
@<TRIPOS>BOND
     1    24    11    1
     2    25    11    1
     3    11     9    1
     4    22     7    1
     5     9    23    1
     6     9     7    1
     7     9    10    1
     8    21     7    1
     9     7     6    1
    10    16     3    1
    11    18     5    1
    12    12    10    2
    13    10    13    1
    14     3     5   ar
    15     3     1   ar
    16     5     8   ar
    17     6     8    1
    18     6    20    1
    19     6    19    1
    20     1    14    1
    21     1     2   ar
    22     8     4   ar
    23    13    26    1
    24     2     4   ar
    25     2    15    1
    26     4    17    1
