@<TRIPOS>MOLECULE
JUCRENBZZQKFGK-UHFFFAOYSA-L	6044727	-609.764050748391
 19 18 0 0 0
SMALL
MULLIKEN NwChem

@<TRIPOS>ATOM
      1 C           0.7851    2.6121    0.7608 C.3     1  LIG1      -0.45999999999999996
      2 C           0.4354    1.7619   -0.4687 C.3     1  LIG1      -0.2400000000000002
      3 C           0.8640    0.2822   -0.4014 C.3     1  LIG1       -0.13999999999999968
      4 C           0.3390   -0.4672    0.8495 C.3     1  LIG1       0.04999999999999982
      5 C           0.4948   -0.3707   -1.7896 C.2     1  LIG1       0.4900000000000002
      6 C          -1.1941   -0.3857    1.1955 C.2     1  LIG1       0.5300000000000002
      7 O           0.7149   -1.8455    0.8020 O.3     1  LIG1      -0.7300000000000004
      8 O           1.4607   -0.5046   -2.5955 O.co2   1  LIG1      -0.6899999999999995
      9 O          -0.7249   -0.6048   -1.9840 O.co2   1  LIG1      -0.6899999999999995
     10 O          -1.7685   -1.5137    1.2758 O.co2   1  LIG1      -0.6799999999999997
     11 O          -1.6782    0.7443    1.4639 O.co2   1  LIG1      -0.6500000000000004
     12 H           0.1662    2.2785    1.5990 H       1  LIG1       0.15000000000000002
     13 H           0.5836    3.6837    0.5862 H       1  LIG1          0.13
     14 H           1.8493    2.5173    1.0314 H       1  LIG1          0.13
     15 H          -0.6491    1.7825   -0.6109 H       1  LIG1          0.12
     16 H           0.9040    2.1958   -1.3676 H       1  LIG1       0.10999999999999999
     17 H           1.9643    0.2525   -0.3344 H       1  LIG1       0.08999999999999997
     18 H           0.8379   -0.0096    1.7284 H       1  LIG1       0.10999999999999999
     19 H          -0.1954   -2.2387    0.8414 H       1  LIG1           0.39
@<TRIPOS>BOND
     1     8     5   ar
     2     9     5   ar
     3     5     3    1
     4    16     2    1
     5    15     2    1
     6     2     3    1
     7     2     1    1
     8     3    17    1
     9     3     4    1
    10    13     1    1
    11     1    14    1
    12     1    12    1
    13     7    19    1
    14     7     4    1
    15     4     6    1
    16     4    18    1
    17     6    10   ar
    18     6    11   ar
