@<TRIPOS>MOLECULE
JVJFIQYAHPMBBX-FNORWQNLSA-N	6044730	-502.82967735717665
 27 26 0 0 0
SMALL
MULLIKEN NwChem

@<TRIPOS>ATOM
      1 C           1.6783   -2.9773    2.7202 C.3     1  LIG1      -0.45999999999999996
      2 C           1.4234   -1.4670    2.6614 C.3     1  LIG1      -0.2599999999999998
      3 C           1.9528   -0.7945    1.3831 C.3     1  LIG1      -0.2699999999999996
      4 C           1.3661   -1.3363    0.0663 C.3     1  LIG1      -0.28000000000000025
      5 C          -1.2169    1.8410   -1.5435 C.2     1  LIG1      -0.17999999999999972
      6 C          -0.1692   -1.3109   -0.0243 C.3     1  LIG1      -0.29000000000000004
      7 C          -0.3987    1.0966   -0.7855 C.2     1  LIG1      -0.11000000000000032
      8 C          -0.6878    2.8162   -2.5084 C.2     1  LIG1       0.23000000000000043
      9 C          -0.8460    0.0579    0.2089 C.3     1  LIG1       0.08999999999999986
     10 O          -1.3780    3.5107   -3.2307 O.2     1  LIG1      -0.4900000000000002
     11 O          -2.2605   -0.0860    0.2579 O.3     1  LIG1      -0.6699999999999999
     12 H           1.1418   -3.5110    1.9273 H       1  LIG1       0.15000000000000002
     13 H           1.3490   -3.3954    3.6778 H       1  LIG1          0.14
     14 H           2.7464   -3.2009    2.6063 H       1  LIG1          0.14
     15 H           0.3469   -1.2750    2.7662 H       1  LIG1          0.14
     16 H           1.8984   -0.9863    3.5265 H       1  LIG1          0.13
     17 H           1.7711    0.2874    1.4498 H       1  LIG1          0.14
     18 H           3.0447   -0.9117    1.3452 H       1  LIG1          0.13
     19 H           1.7979   -0.7734   -0.7714 H       1  LIG1       0.15000000000000002
     20 H           1.6934   -2.3732   -0.0792 H       1  LIG1       0.15000000000000002
     21 H          -2.2975    1.7594   -1.4633 H       1  LIG1       0.16000000000000003
     22 H          -0.4755   -1.6766   -1.0155 H       1  LIG1       0.15000000000000002
     23 H          -0.6034   -1.9982    0.7107 H       1  LIG1       0.16000000000000003
     24 H           0.6795    1.2321   -0.8808 H       1  LIG1       0.18999999999999995
     25 H           0.4251    2.8833   -2.5429 H       1  LIG1          0.13
     26 H          -0.5731    0.4152    1.2112 H       1  LIG1       0.18000000000000005
     27 H          -2.5408   -0.4887   -0.5806 H       1  LIG1       0.43000000000000005
@<TRIPOS>BOND
     1    10     8    2
     2    25     8    1
     3     8     5    1
     4     5    21    1
     5     5     7    2
     6    22     6    1
     7    24     7    1
     8     7     9    1
     9    19     4    1
    10    27    11    1
    11    20     4    1
    12     6     4    1
    13     6     9    1
    14     6    23    1
    15     4     3    1
    16     9    11    1
    17     9    26    1
    18    18     3    1
    19     3    17    1
    20     3     2    1
    21    12     1    1
    22    14     1    1
    23     2     1    1
    24     2    15    1
    25     2    16    1
    26     1    13    1
