@<TRIPOS>MOLECULE
JVQYSWDUAOAHFM-BYPYZUCNSA-M	6044731	-459.7775418486723
 18 17 0 0 0
SMALL
MULLIKEN NwChem

@<TRIPOS>ATOM
      1 C          -1.5440    1.8134    0.3986 C.3     1  LIG1      -0.46999999999999975
      2 C          -0.1178    0.8683   -2.3318 C.3     1  LIG1      -0.45999999999999996
      3 C          -0.0465    1.8095    0.0618 C.3     1  LIG1      -0.2699999999999996
      4 C           0.3859    0.6778   -0.8995 C.3     1  LIG1       -0.16000000000000014
      5 C          -0.0055   -0.7085   -0.3408 C.2     1  LIG1       0.3799999999999999
      6 C           0.3611   -0.9294    1.1432 C.2     1  LIG1       0.4900000000000002
      7 O          -0.5127   -1.5532   -1.0710 O.2     1  LIG1      -0.5399999999999991
      8 O          -0.5954   -1.0103    1.9488 O.co2   1  LIG1      -0.6400000000000006
      9 O           1.6048   -0.9448    1.3264 O.co2   1  LIG1      -0.6500000000000004
     10 H          -2.1658    1.8938   -0.5025 H       1  LIG1       0.15000000000000002
     11 H          -1.7953    2.6604    1.0511 H       1  LIG1       0.15000000000000002
     12 H          -1.7979    0.8874    0.9262 H       1  LIG1       0.15000000000000002
     13 H           0.2352    0.0549   -2.9729 H       1  LIG1       0.15000000000000002
     14 H          -1.2128    0.8475   -2.3721 H       1  LIG1       0.15000000000000002
     15 H           0.2249    1.8257   -2.7476 H       1  LIG1       0.15000000000000002
     16 H           0.2476    2.7754   -0.3782 H       1  LIG1          0.14
     17 H           0.5225    1.6970    0.9915 H       1  LIG1          0.14
     18 H           1.4853    0.6691   -0.8994 H       1  LIG1       0.16000000000000003
@<TRIPOS>BOND
     1    13     2    1
     2    15     2    1
     3    14     2    1
     4     2     4    1
     5     7     5    2
     6     4    18    1
     7     4     5    1
     8     4     3    1
     9    10     1    1
    10    16     3    1
    11     5     6    1
    12     3     1    1
    13     3    17    1
    14     1    12    1
    15     1    11    1
    16     6     9   ar
    17     6     8   ar
