@<TRIPOS>MOLECULE
JVTAAEKCZFNVCJ-REOHCLBHSA-M	6044732	-343.09436060443244
 11 10 0 0 0
SMALL
MULLIKEN NwChem

@<TRIPOS>ATOM
      1 C           0.4668   -1.7336    0.3275 C.3     1  LIG1      -0.45999999999999996
      2 C          -0.1635   -0.3774    0.6469 C.3     1  LIG1       0.05999999999999961
      3 C           0.3542    0.7211   -0.3533 C.2     1  LIG1       0.5199999999999996
      4 O          -1.5814   -0.4402    0.5794 O.3     1  LIG1      -0.7200000000000006
      5 O          -0.5815    1.3012   -0.9853 O.co2   1  LIG1      -0.6699999999999999
      6 O           1.5896    0.8916   -0.4176 O.co2   1  LIG1      -0.6600000000000001
      7 H           0.1487   -2.0582   -0.6719 H       1  LIG1          0.14
      8 H           0.1587   -2.5052    1.0475 H       1  LIG1          0.14
      9 H           1.5576   -1.6385    0.3338 H       1  LIG1          0.14
     10 H           0.1541   -0.0744    1.6619 H       1  LIG1       0.10999999999999999
     11 H          -1.7213    0.2690   -0.1061 H       1  LIG1           0.39
@<TRIPOS>BOND
     1     5     3   ar
     2     7     1    1
     3     6     3   ar
     4     3     2    1
     5    11     4    1
     6     1     9    1
     7     1     2    1
     8     1     8    1
     9     4     2    1
    10     2    10    1
