@<TRIPOS>MOLECULE
JVTAAEKCZFNVCJ-UWTATZPHSA-M	6044733	-343.09456942726274
 11 10 0 0 0
SMALL
MULLIKEN NwChem

@<TRIPOS>ATOM
      1 C           0.6908    0.6296    1.5835 C.3     1  LIG1      -0.4500000000000002
      2 C          -0.2061   -0.2384    0.6996 C.3     1  LIG1       0.04999999999999982
      3 C           0.2495   -0.1529   -0.8040 C.2     1  LIG1       0.5199999999999996
      4 O          -1.5662    0.1604    0.7994 O.3     1  LIG1      -0.7200000000000006
      5 O          -0.6732    0.2381   -1.5833 O.co2   1  LIG1      -0.6699999999999999
      6 O           1.4325   -0.4632   -1.0560 O.co2   1  LIG1      -0.6600000000000001
      7 H           1.7354    0.3300    1.4495 H       1  LIG1          0.14
      8 H           0.4161    0.5478    2.6448 H       1  LIG1          0.14
      9 H           0.5875    1.6819    1.2882 H       1  LIG1          0.14
     10 H          -0.0965   -1.2920    1.0176 H       1  LIG1       0.10999999999999999
     11 H          -1.7289    0.3503   -0.1649 H       1  LIG1            0.4
@<TRIPOS>BOND
     1     5     3   ar
     2     6     3   ar
     3     3     2    1
     4    11     4    1
     5     2     4    1
     6     2    10    1
     7     2     1    1
     8     9     1    1
     9     7     1    1
    10     1     8    1
