@<TRIPOS>MOLECULE
JWFCYWSMNRLXLX-UJJXFSCMSA-J	11095314	-2213.2036157823227
 82 86 0 0 0
SMALL
MULLIKEN NwChem

@<TRIPOS>ATOM
      1 C          -1.8648   -5.7057   -0.5645 C.3     1  LIG1      -0.5700000000000003
      2 C           3.3262   -4.7119   -0.0640 C.3     1  LIG1      -0.5499999999999998
      3 C          -5.6228    1.3021   -0.2158 C.3     1  LIG1      -0.5499999999999998
      4 C           1.4871    5.1104    0.2684 C.3     1  LIG1      -0.5700000000000003
      5 C          -4.5281   -4.0151   -0.6389 C.3     1  LIG1      -0.34999999999999964
      6 C          -3.7534    4.1258   -0.0198 C.3     1  LIG1      -0.33999999999999986
      7 C           5.2541   -1.9676    0.3780 C.3     1  LIG1      -0.33999999999999986
      8 C           4.1504    3.4213    0.3993 C.3     1  LIG1      -0.34999999999999964
      9 C          -5.0673   -4.8377    0.5625 C.3     1  LIG1       -0.3600000000000003
     10 C          -5.2214    4.5479   -0.1619 C.3     1  LIG1       -0.3700000000000001
     11 C           6.1330   -3.2108    0.5727 C.3     1  LIG1       -0.3700000000000001
     12 C           4.6545    4.1854   -0.8559 C.3     1  LIG1       -0.3600000000000003
     13 C           0.4892   -3.6338   -0.2113 C.2     1  LIG1      -0.3099999999999996
     14 C          -3.5784   -0.9505   -0.3009 C.2     1  LIG1      -0.3200000000000003
     15 C          -0.8724    3.0412    0.0408 C.2     1  LIG1      -0.3099999999999996
     16 C           3.2001    0.3444    0.2478 C.2     1  LIG1      -0.3099999999999996
     17 C          -1.9740   -4.2126   -0.4457 C.ar    1  LIG1      0.04999999999999982
     18 C           2.9759   -3.2523    0.0277 C.2     1  LIG1      0.03000000000000025
     19 C          -4.1352    1.5149   -0.1679 C.2     1  LIG1      0.03000000000000025
     20 C           1.5954    3.6137    0.2243 C.ar    1  LIG1      0.04999999999999982
     21 C          -3.1380   -3.4640   -0.4744 C.ar    1  LIG1      0.019999999999999574
     22 C          -3.3853    2.6585   -0.0856 C.2     1  LIG1      0.04999999999999982
     23 C           3.7617   -2.1416    0.1903 C.2     1  LIG1      0.04999999999999982
     24 C           2.7581    2.8651    0.2868 C.ar    1  LIG1      0.019999999999999574
     25 C          -0.8637   -3.3083   -0.2880 C.ar    1  LIG1       0.34999999999999964
     26 C           1.5876   -2.7749   -0.0644 C.2     1  LIG1       0.28000000000000025
     27 C          -3.1852    0.3915   -0.1937 C.2     1  LIG1       0.28000000000000025
     28 C           0.4816    2.7050    0.1098 C.ar    1  LIG1       0.34999999999999964
     29 C          -2.7579   -2.0769   -0.3305 C.ar    1  LIG1       0.33999999999999986
     30 C          -1.9787    2.1857   -0.0505 C.2     1  LIG1       0.2699999999999996
     31 C           2.8126   -1.0010    0.1613 C.2     1  LIG1       0.2699999999999996
     32 C           2.3749    1.4709    0.2093 C.ar    1  LIG1       0.33999999999999986
     33 C          -5.7007   -6.2250    0.1642 C.2     1  LIG1       0.5199999999999996
     34 C          -5.4446    6.1067   -0.2754 C.2     1  LIG1       0.5199999999999996
     35 C           7.6079   -2.9110    1.0483 C.2     1  LIG1       0.5199999999999996
     36 C           5.2072    5.6351   -0.5687 C.2     1  LIG1       0.5300000000000002
     37 N          -1.3875   -2.0408   -0.2281 N.ar    1  LIG1        -0.79
     38 N           1.5211   -1.4187    0.0161 N.2     1  LIG1        -0.71
     39 N          -1.8973    0.8262   -0.1133 N.2     1  LIG1      -0.7000000000000002
     40 N           1.0034    1.4337    0.1012 N.ar    1  LIG1        -0.79
     41 O          -5.1912   -6.7946   -0.8435 O.co2   1  LIG1      -0.6500000000000004
     42 O          -6.6118   -6.6401    0.9213 O.co2   1  LIG1      -0.6799999999999997
     43 O          -4.4860    6.7715   -0.7456 O.co2   1  LIG1      -0.6799999999999997
     44 O          -6.5861    6.4993    0.0838 O.co2   1  LIG1      -0.6899999999999995
     45 O           8.4469   -3.7982    0.7383 O.co2   1  LIG1      -0.6999999999999993
     46 O           7.7713   -1.8592    1.7173 O.co2   1  LIG1      -0.6699999999999999
     47 O           4.7735    6.2054    0.4725 O.co2   1  LIG1      -0.6500000000000004
     48 O           5.9877    6.0849   -1.4427 O.co2   1  LIG1      -0.6799999999999997
     49 H          -2.8504   -6.1700   -0.6936 H       1  LIG1       0.18000000000000005
     50 H          -1.2325   -5.9910   -1.4181 H       1  LIG1       0.17000000000000004
     51 H          -1.3973   -6.1415    0.3304 H       1  LIG1       0.17000000000000004
     52 H           4.3999   -4.8722   -0.1394 H       1  LIG1       0.18000000000000005
     53 H           2.9638   -5.2708    0.8118 H       1  LIG1       0.17000000000000004
     54 H           2.8528   -5.1710   -0.9436 H       1  LIG1       0.17000000000000004
     55 H          -6.1755    2.2293   -0.0785 H       1  LIG1       0.18000000000000005
     56 H          -5.9339    0.8625   -1.1752 H       1  LIG1       0.17000000000000004
     57 H          -5.9422    0.5981    0.5657 H       1  LIG1       0.17000000000000004
     58 H           2.4727    5.5787    0.3784 H       1  LIG1       0.18000000000000005
     59 H           1.0237    5.5003   -0.6484 H       1  LIG1       0.17000000000000004
     60 H           0.8503    5.4372    1.1025 H       1  LIG1       0.17000000000000004
     61 H          -4.5317   -4.7046   -1.4921 H       1  LIG1       0.16000000000000003
     62 H          -5.2244   -3.2027   -0.8819 H       1  LIG1       0.15000000000000002
     63 H          -3.2013    4.6829   -0.7886 H       1  LIG1          0.14
     64 H          -3.3678    4.5333    0.9283 H       1  LIG1       0.15000000000000002
     65 H           5.6481   -1.3883   -0.4725 H       1  LIG1       0.15000000000000002
     66 H           5.4447   -1.3256    1.2487 H       1  LIG1       0.15000000000000002
     67 H           4.1727    4.1544    1.2155 H       1  LIG1       0.16000000000000003
     68 H           4.8523    2.6221    0.6648 H       1  LIG1       0.15000000000000002
     69 H          -4.2375   -5.0648    1.2468 H       1  LIG1       0.15000000000000002
     70 H          -5.7958   -4.2642    1.1477 H       1  LIG1          0.13
     71 H          -5.6434    4.1019   -1.0758 H       1  LIG1          0.14
     72 H          -5.8315    4.1837    0.6740 H       1  LIG1          0.13
     73 H           6.1944   -3.8139   -0.3418 H       1  LIG1          0.13
     74 H           5.6834   -3.8545    1.3442 H       1  LIG1          0.14
     75 H           5.4248    3.6153   -1.3881 H       1  LIG1          0.13
     76 H           3.8268    4.3108   -1.5682 H       1  LIG1       0.15000000000000002
     77 H           0.7036   -4.6968   -0.2662 H       1  LIG1       0.17000000000000004
     78 H          -4.6427   -1.1487   -0.3726 H       1  LIG1       0.17000000000000004
     79 H          -1.0821    4.1059    0.0672 H       1  LIG1       0.17000000000000004
     80 H           4.2617    0.5425    0.3497 H       1  LIG1       0.17000000000000004
     81 H          -0.8480   -1.1869   -0.1282 H       1  LIG1           0.4
     82 H           0.4636    0.5780    0.0308 H       1  LIG1            0.4
@<TRIPOS>BOND
     1    76    12    1
     2    61     5    1
     3    48    36   ar
     4    50     1    1
     5    75    12    1
     6    56     3    1
     7    71    10    1
     8    54     2    1
     9    62     5    1
    10    12    36    1
    11    12     8    1
    12    41    33   ar
    13    63     6    1
    14    43    34   ar
    15    49     1    1
    16    59     4    1
    17     5    21    1
    18     5     9    1
    19    36    47   ar
    20     1    17    1
    21     1    51    1
    22    21    17   ar
    23    21    29   ar
    24    65     7    1
    25    17    25   ar
    26    78    14    1
    27    73    11    1
    28    29    14    2
    29    29    37   ar
    30    14    27    1
    31    25    37   ar
    32    25    13    2
    33    34    10    1
    34    34    44   ar
    35    77    13    1
    36    37    81    1
    37     3    19    1
    38     3    55    1
    39     3    57    1
    40    13    26    1
    41    27    19    1
    42    27    39    2
    43    19    22    2
    44    10     6    1
    45    10    72    1
    46    52     2    1
    47    39    30    1
    48    22    30    1
    49    22     6    1
    50    26    38    2
    51    26    18    1
    52     2    18    1
    53     2    53    1
    54    30    15    2
    55     6    64    1
    56    38    31    1
    57    18    23    2
    58    82    40    1
    59    15    79    1
    60    15    28    1
    61    40    28   ar
    62    40    32   ar
    63    28    20   ar
    64    31    23    1
    65    31    16    2
    66    33     9    1
    67    33    42   ar
    68    23     7    1
    69    32    16    1
    70    32    24   ar
    71    20     4    1
    72    20    24   ar
    73    16    80    1
    74     4    58    1
    75     4    60    1
    76    24     8    1
    77     7    11    1
    78     7    66    1
    79     8    68    1
    80     8    67    1
    81     9    70    1
    82     9    69    1
    83    11    35    1
    84    11    74    1
    85    45    35   ar
    86    35    46   ar
