@<TRIPOS>MOLECULE
JWJCTZKFYGDABJ-VIFPVBQESA-O	6044735	-670.7481806344589
 30 30 0 0 0
SMALL
MULLIKEN NwChem

@<TRIPOS>ATOM
      1 C           2.8638   -0.8582    2.6870 C.3     1  LIG1      -0.34999999999999964
      2 C          -1.9461    2.7257   -1.8527 C.3     1  LIG1       -0.2400000000000002
      3 C          -0.0831   -1.4028    0.4074 C.ar    1  LIG1      -0.23000000000000043
      4 C          -1.4749   -1.4059    0.5827 C.ar    1  LIG1      -0.20999999999999996
      5 C          -0.2526    0.7005   -0.7884 C.ar    1  LIG1        -0.25
      6 C           2.6340    0.6619    0.6551 C.3     1  LIG1      -0.16999999999999993
      7 C           0.5315   -0.3532   -0.2794 C.ar    1  LIG1      0.04999999999999982
      8 C          -2.2568   -0.3744    0.0730 C.ar    1  LIG1       0.2999999999999998
      9 C           2.0409   -0.2872   -0.4090 C.3     1  LIG1       0.07000000000000028
     10 C          -1.6367    0.6983   -0.6326 C.ar    1  LIG1       0.34999999999999964
     11 N           2.1377    0.2863    2.0348 N.4     1  LIG1       -0.6100000000000003
     12 O          -3.6015   -0.3106    0.1915 O.3     1  LIG1      -0.6699999999999999
     13 O           2.5037    0.2954   -1.6107 O.3     1  LIG1      -0.6600000000000001
     14 O          -2.4791    1.6415   -1.0942 O.3     1  LIG1      -0.5299999999999994
     15 H           2.7701   -1.7358    2.0486 H       1  LIG1          0.24
     16 H           2.4118   -1.0527    3.6607 H       1  LIG1       0.22999999999999998
     17 H           3.9133   -0.5850    2.8013 H       1  LIG1       0.22999999999999998
     18 H          -1.2484    3.3250   -1.2533 H       1  LIG1       0.18000000000000005
     19 H          -1.4407    2.3662   -2.7577 H       1  LIG1       0.18000000000000005
     20 H          -2.8039    3.3375   -2.1318 H       1  LIG1       0.18999999999999995
     21 H           0.4994   -2.2524    0.7587 H       1  LIG1       0.17000000000000004
     22 H          -1.9561   -2.2331    1.0990 H       1  LIG1       0.17000000000000004
     23 H           0.2386    1.4954   -1.3375 H       1  LIG1       0.17000000000000004
     24 H           2.2872    1.6765    0.4487 H       1  LIG1       0.21999999999999997
     25 H           3.7253    0.6415    0.6638 H       1  LIG1       0.21999999999999997
     26 H           2.4621   -1.2964   -0.2683 H       1  LIG1       0.18000000000000005
     27 H           1.1375    0.0315    1.9191 H       1  LIG1      0.43000000000000005
     28 H           2.1734    1.1049    2.6501 H       1  LIG1      0.44999999999999996
     29 H          -3.9345   -1.1032    0.6423 H       1  LIG1       0.45999999999999996
     30 H           2.1669   -0.2276   -2.3566 H       1  LIG1       0.43999999999999995
@<TRIPOS>BOND
     1    19     2    1
     2    30    13    1
     3    20     2    1
     4     2    18    1
     5     2    14    1
     6    13     9    1
     7    23     5    1
     8    14    10    1
     9     5    10   ar
    10     5     7   ar
    11    10     8   ar
    12     9     7    1
    13     9    26    1
    14     9     6    1
    15     7     3   ar
    16     8    12    1
    17     8     4   ar
    18    12    29    1
    19     3     4   ar
    20     3    21    1
    21    24     6    1
    22     4    22    1
    23     6    25    1
    24     6    11    1
    25    27    11    1
    26    11    28    1
    27    11     1    1
    28    15     1    1
    29     1    17    1
    30     1    16    1
