@<TRIPOS>MOLECULE
JXOHGGNKMLTUBP-HSUXUTPPSA-M	11095312	-648.2776391146341
 21 21 0 0 0
SMALL
MULLIKEN NwChem

@<TRIPOS>ATOM
      1 C          -0.0159   -1.1251   -0.7962 C.2     1  LIG1      -0.23000000000000043
      2 C           0.8931    0.7924    0.4894 C.3     1  LIG1       -0.3799999999999999
      3 C           1.0073   -0.5827   -0.1166 C.2     1  LIG1       0.08000000000000007
      4 C          -1.3568   -0.4758   -0.9439 C.3     1  LIG1       0.05999999999999961
      5 C          -0.5513    1.2366    0.7239 C.3     1  LIG1       0.13999999999999968
      6 C          -1.3806    1.0173   -0.5424 C.3     1  LIG1       0.1200000000000001
      7 C           2.3542   -1.3461    0.0757 C.2     1  LIG1       0.4900000000000002
      8 O          -2.3572   -1.1772   -0.1354 O.3     1  LIG1      -0.6799999999999997
      9 O          -0.6281    2.6209    1.0830 O.3     1  LIG1      -0.6999999999999993
     10 O          -2.7300    1.4450   -0.4063 O.3     1  LIG1      -0.6999999999999993
     11 O           3.1812   -0.7492    0.8135 O.co2   1  LIG1      -0.6699999999999999
     12 O           2.4424   -2.4491   -0.5129 O.co2   1  LIG1      -0.6699999999999999
     13 H           0.1266   -2.1181   -1.2173 H       1  LIG1          0.13
     14 H           1.4849    0.8065    1.4127 H       1  LIG1       0.16000000000000003
     15 H           1.3696    1.5280   -0.1776 H       1  LIG1       0.16000000000000003
     16 H          -1.7484   -0.5612   -1.9654 H       1  LIG1       0.16000000000000003
     17 H          -0.9980    0.6209    1.5275 H       1  LIG1          0.12
     18 H          -0.9306    1.6182   -1.3436 H       1  LIG1          0.14
     19 H          -1.8651   -1.4960    0.6392 H       1  LIG1       0.43000000000000005
     20 H           0.0987    2.7698    1.7081 H       1  LIG1       0.43000000000000005
     21 H          -3.1702    0.6639   -0.0205 H       1  LIG1       0.42000000000000004
@<TRIPOS>BOND
     1    16     4    1
     2    18     6    1
     3    13     1    1
     4     4     1    1
     5     4     6    1
     6     4     8    1
     7     1     3    2
     8     6    10    1
     9     6     5    1
    10    12     7   ar
    11    10    21    1
    12    15     2    1
    13     8    19    1
    14     3     7    1
    15     3     2    1
    16     7    11   ar
    17     2     5    1
    18     2    14    1
    19     5     9    1
    20     5    17    1
    21     9    20    1
