@<TRIPOS>MOLECULE
JZNWSCPGTDBMEW-RXMQYKEDSA-N	6044740	-1046.3051360183788
 27 26 0 0 0
SMALL
MULLIKEN NwChem

@<TRIPOS>ATOM
      1 C          -1.9074    0.8121   -3.2315 C.3     1  LIG1       -0.15000000000000036
      2 C          -0.8148   -0.0316   -2.5727 C.3     1  LIG1       -0.07000000000000028
      3 C           0.4126   -0.7490    2.8911 C.3     1  LIG1       -0.08999999999999986
      4 C           1.7422   -0.1758    0.7834 C.3     1  LIG1       -0.08999999999999986
      5 C           1.7985   -0.5762    2.2605 C.3     1  LIG1       0.1200000000000001
      6 N          -2.9124    1.3888   -2.3462 N.3     1  LIG1      -0.7699999999999996
      7 O          -0.2899   -1.7991    2.2380 O.3     1  LIG1      -0.6899999999999995
      8 O           2.5208   -1.7993    2.3240 O.3     1  LIG1      -0.6699999999999999
      9 O          -0.9112    2.5144   -0.0111 O.3     1  LIG1      -0.6600000000000001
     10 O          -1.4051    0.0078    0.3710 O.2     1  LIG1      -0.6500000000000004
     11 O           0.0131    0.7597   -1.6734 O.3     1  LIG1      -0.5399999999999991
     12 O           0.9996    1.0678    0.6040 O.3     1  LIG1      -0.5399999999999991
     13 P          -0.4132    0.9867   -0.1425 P.3     1  LIG1          1.25
     14 H          -2.4069    0.1665   -3.9681 H       1  LIG1       0.16000000000000003
     15 H          -1.4376    1.6268   -3.7951 H       1  LIG1       0.17000000000000004
     16 H          -1.2493   -0.8631   -2.0082 H       1  LIG1       0.18000000000000005
     17 H          -0.1187   -0.4284   -3.3178 H       1  LIG1       0.18000000000000005
     18 H           0.5520   -1.0435    3.9375 H       1  LIG1       0.16000000000000003
     19 H          -0.1497    0.1924    2.8702 H       1  LIG1       0.17000000000000004
     20 H           1.2742   -0.9849    0.2135 H       1  LIG1       0.18999999999999995
     21 H           2.7462   -0.0071    0.3909 H       1  LIG1       0.18999999999999995
     22 H           2.3679    0.1736    2.8228 H       1  LIG1       0.16000000000000003
     23 H          -3.2586    0.6949   -1.6855 H       1  LIG1       0.31999999999999995
     24 H          -2.5177    2.1432   -1.7902 H       1  LIG1       0.33999999999999997
     25 H          -0.8319   -1.3777    1.5413 H       1  LIG1       0.44999999999999996
     26 H           1.8553   -2.4884    2.1411 H       1  LIG1       0.42000000000000004
     27 H          -0.1848    3.1461   -0.1480 H       1  LIG1           0.49
@<TRIPOS>BOND
     1    14     1    1
     2    15     1    1
     3    17     2    1
     4     1     2    1
     5     1     6    1
     6     2    16    1
     7     2    11    1
     8     6    24    1
     9     6    23    1
    10    11    13    1
    11    27     9    1
    12    13     9    1
    13    13    10    2
    14    13    12    1
    15    20     4    1
    16    21     4    1
    17    12     4    1
    18     4     5    1
    19    25     7    1
    20    26     8    1
    21     7     3    1
    22     5     8    1
    23     5    22    1
    24     5     3    1
    25    19     3    1
    26     3    18    1
