@<TRIPOS>MOLECULE
JZRWCGZRTZMZEH-UHFFFAOYSA-N	6044741	-1159.543959272083
 35 36 0 0 0
SMALL
MULLIKEN NwChem

@<TRIPOS>ATOM
      1 C           2.0785    0.2960    2.5745 C.3     1  LIG1            -0.54
      2 C          -4.3123   -3.6735   -1.6760 C.3     1  LIG1       -0.5300000000000002
      3 C           2.6290    3.1132    1.0946 C.3     1  LIG1       -0.33999999999999986
      4 C           3.4592    3.7288   -0.0322 C.3     1  LIG1       -0.040000000000000036
      5 C          -0.8899   -3.0072   -0.5265 C.3     1  LIG1           0.0
      6 C           0.1756   -1.3731    1.0392 C.3     1  LIG1         -0.25
      7 C           0.1634    0.5429   -0.5540 C.ar    1  LIG1       -0.09999999999999964
      8 C           1.5133    0.7868    1.2769 C.ar    1  LIG1       0.3799999999999999
      9 C          -3.1096   -3.0714   -1.0131 C.2     1  LIG1       0.5499999999999998
     10 C          -0.9987   -1.9179    0.2980 C.2     1  LIG1       0.040000000000000036
     11 C           1.7552    1.9753    0.6417 C.ar    1  LIG1       -0.20000000000000018
     12 C          -2.3108   -1.3014    0.4905 C.2     1  LIG1       0.4800000000000004
     13 N          -2.6768   -0.2703    1.1627 N.pl3   1  LIG1      -0.7400000000000002
     14 N          -1.9201   -3.5999   -1.1935 N.2     1  LIG1      -0.5300000000000002
     15 N          -3.3131   -1.9841   -0.2255 N.pl3   1  LIG1      -0.6299999999999999
     16 N           0.6039   -0.0089    0.5672 N.ar    1  LIG1      -0.3799999999999999
     17 O           2.5192    4.2383   -0.9732 O.3     1  LIG1      -0.6400000000000006
     18 S           0.8274    2.0754   -0.8456 S.2     1  LIG1      0.41999999999999993
     19 H           2.5341   -0.6940    2.4656 H       1  LIG1       0.20999999999999996
     20 H           1.3051    0.2292    3.3488 H       1  LIG1       0.20999999999999996
     21 H           2.8478    0.9774    2.9388 H       1  LIG1       0.20999999999999996
     22 H          -3.9885   -4.4475   -2.3719 H       1  LIG1       0.18999999999999995
     23 H          -4.9724   -4.1255   -0.9256 H       1  LIG1       0.20999999999999996
     24 H          -4.8898   -2.9144   -2.2158 H       1  LIG1       0.19999999999999996
     25 H           1.9971    3.9020    1.5223 H       1  LIG1       0.19999999999999996
     26 H           3.2967    2.7662    1.8884 H       1  LIG1       0.19999999999999996
     27 H           4.0894    4.5278    0.3803 H       1  LIG1       0.16000000000000003
     28 H           4.1136    2.9682   -0.4835 H       1  LIG1       0.16000000000000003
     29 H           0.0823   -3.4748   -0.6813 H       1  LIG1       0.18999999999999995
     30 H           1.0456   -2.0280    0.9419 H       1  LIG1          0.24
     31 H          -0.0491   -1.2599    2.1044 H       1  LIG1          0.24
     32 H          -0.5323    0.0357   -1.2076 H       1  LIG1          0.28
     33 H          -1.8990    0.1618    1.6601 H       1  LIG1       0.31999999999999995
     34 H          -4.2489   -1.6064   -0.1053 H       1  LIG1          0.38
     35 H           2.9832    4.5341   -1.7719 H       1  LIG1       0.43999999999999995
@<TRIPOS>BOND
     1    22     2    1
     2    24     2    1
     3    35    17    1
     4     2     9    1
     5     2    23    1
     6    32     7    1
     7    14     9    2
     8    14     5    1
     9     9    15    1
    10    17     4    1
    11    18     7   ar
    12    18    11   ar
    13    29     5    1
    14     7    16   ar
    15     5    10    1
    16    28     4    1
    17    15    34    1
    18    15    12    1
    19     4    27    1
    20     4     3    1
    21    10    12    2
    22    10     6    1
    23    12    13    1
    24    16     6    1
    25    16     8   ar
    26    11     3    1
    27    11     8   ar
    28    30     6    1
    29     6    31    1
    30     3    25    1
    31     3    26    1
    32    13    33    1
    33     8     1    1
    34    19     1    1
    35     1    21    1
    36     1    20    1
