@<TRIPOS>MOLECULE
KABXUUFDPUOJMW-BYPYZUCNSA-N	6044743	-476.27602029287635
 18 17 0 0 0
SMALL
MULLIKEN NwChem

@<TRIPOS>ATOM
      1 C           0.6788    1.6969   -0.2161 C.3     1  LIG1       -0.3600000000000003
      2 C           0.0863    0.7028   -1.2207 C.3     1  LIG1      -0.2699999999999996
      3 C          -0.1283    1.8713    1.0525 C.2     1  LIG1       0.2699999999999996
      4 CA          0.4814   -0.7766   -1.0053 C.3     1  LIG1       -0.07000000000000028
      5 C           0.0126   -1.2906    0.3579 C.2     1  LIG1       0.5800000000000001
      6 N          -0.0473   -1.5705   -2.1110 N.3     1  LIG1        -0.75
      7 O          -1.2200    1.3845    1.2512 O.2     1  LIG1      -0.4499999999999993
      8 O          -0.9600   -1.9861    0.5393 O.2     1  LIG1      -0.5099999999999998
      9 OXT         0.8304   -0.8858    1.3661 O.3     1  LIG1      -0.5800000000000001
     10 H           0.7557    2.6992   -0.6660 H       1  LIG1       0.19999999999999996
     11 H           1.7046    1.4298    0.0733 H       1  LIG1       0.18999999999999995
     12 H          -1.0073    0.7815   -1.2000 H       1  LIG1       0.16000000000000003
     13 H           0.4125    0.9524   -2.2346 H       1  LIG1       0.17000000000000004
     14 H           0.3489    2.5230    1.8193 H       1  LIG1          0.14
     15 HA          1.5767   -0.8420   -1.0210 H       1  LIG1       0.18000000000000005
     16 H1          0.2844   -2.5306   -2.0220 H       1  LIG1       0.32999999999999996
     17 H2         -1.0597   -1.6351   -1.9952 H       1  LIG1       0.31999999999999995
     18 HXT         0.4151   -1.1920    2.1948 H       1  LIG1       0.43999999999999995
@<TRIPOS>BOND
     1    13     2    1
     2     6    16    1
     3     6    17    1
     4     6     4    1
     5     2    12    1
     6     2     4    1
     7     2     1    1
     8    15     4    1
     9     4     5    1
    10    10     1    1
    11     1    11    1
    12     1     3    1
    13     5     8    2
    14     5     9    1
    15     3     7    2
    16     3    14    1
    17     9    18    1
