@<TRIPOS>MOLECULE
KACPVQQHDVBVFC-PMRVSPHWSA-L	11095308	-700.80978737898
 18 17 0 0 0
SMALL
MULLIKEN NwChem

@<TRIPOS>ATOM
      1 C           2.4915   -0.2482    0.2052 C.2     1  LIG1      -0.21999999999999975
      2 C           1.2199    0.2167    0.5127 C.2     1  LIG1      -0.16000000000000014
      3 C           3.6480    0.1574    0.9350 C.2     1  LIG1       0.17999999999999972
      4 C          -0.0107   -0.1157   -0.1033 C.3     1  LIG1           0.0
      5 CA         -1.1757    0.5145    0.3398 C.3     1  LIG1       0.16000000000000014
      6 C          -0.0698   -1.2942   -1.1297 C.2     1  LIG1       0.45999999999999996
      7 C          -2.5911    0.4853   -0.3425 C.2     1  LIG1       0.5099999999999998
      8 N          -1.2459    1.3670    1.4173 N.3     1  LIG1      -0.7699999999999996
      9 O           3.7344    0.9274    1.9146 O.2     1  LIG1      -0.5700000000000003
     10 O           0.7882   -1.2830   -2.0530 O.co2   1  LIG1      -0.6699999999999999
     11 O          -0.9181   -2.1742   -0.8466 O.co2   1  LIG1      -0.6699999999999999
     12 OXT        -3.5427    0.6348    0.4898 O.co2   1  LIG1      -0.6699999999999999
     13 O          -2.6242    0.4327   -1.5814 O.co2   1  LIG1      -0.6300000000000008
     14 H           2.6049   -0.9274   -0.6337 H       1  LIG1          0.13
     15 H           1.2169    0.9412    1.3332 H       1  LIG1          0.14
     16 H           4.5987   -0.3060    0.5479 H       1  LIG1       0.08999999999999997
     17 H1         -0.5637    1.2570    2.1567 H       1  LIG1          0.36
     18 H2         -2.2305    1.4130    1.6961 H       1  LIG1           0.36
@<TRIPOS>BOND
     1    10     6   ar
     2    13     7   ar
     3     6    11   ar
     4     6     4    1
     5    14     1    1
     6     7     5    1
     7     7    12   ar
     8     4     5    1
     9     4     2    1
    10     1     2    2
    11     1     3    1
    12     5     8    1
    13     2    15    1
    14    16     3    1
    15     3     9    2
    16     8    18    1
    17     8    17    1
