@<TRIPOS>MOLECULE
KBASEDIREZTYND-GUTXKFCHSA-K	11095306	-1991.3241417977033
 55 57 0 0 0
SMALL
MULLIKEN NwChem

@<TRIPOS>ATOM
      1 C          -4.5736    2.8297   -0.4905 C.3     1  LIG1            -0.54
      2 C          -0.4550    3.5699   -1.1318 C.3     1  LIG1       -0.3600000000000003
      3 C          -1.8360    4.1699    0.7636 C.3     1  LIG1       -0.33999999999999986
      4 C          -3.9554    0.4108   -0.2114 C.ar    1  LIG1      -0.2699999999999996
      5 C          -1.2277    0.9825   -0.1750 C.ar    1  LIG1      -0.21999999999999975
      6 C           0.7110   -1.1691    0.3450 C.3     1  LIG1       -0.23000000000000043
      7 C           2.7788    1.5317   -0.2839 C.3     1  LIG1       -0.07000000000000028
      8 C          -3.5584    1.7283   -0.3164 C.ar    1  LIG1      0.16999999999999993
      9 C          -3.0330   -0.6519   -0.0945 C.ar    1  LIG1       0.29000000000000004
     10 C          -2.1576    2.0162   -0.3026 C.ar    1  LIG1       0.20999999999999996
     11 C          -1.6415   -0.3508   -0.0768 C.ar    1  LIG1       0.34999999999999964
     12 C           1.6315   -1.3284   -0.8857 C.3     1  LIG1       0.1200000000000001
     13 C           3.4754    0.2689    0.2085 C.3     1  LIG1       0.11000000000000032
     14 C          -2.6704   -2.9081    0.1037 C.2     1  LIG1       0.20000000000000018
     15 C           3.1659   -1.0040   -0.6111 C.3     1  LIG1       0.1299999999999999
     16 C          -1.2415   -2.6869    0.0523 C.3     1  LIG1       0.6799999999999997
     17 C          -3.1685   -4.3443    0.2576 C.2     1  LIG1          0.54
     18 C          -0.9488   -5.1323    0.0396 C.2     1  LIG1       0.6799999999999997
     19 N          -3.5224   -1.9219    0.0264 N.2     1  LIG1      -0.5800000000000001
     20 N          -0.4445   -3.7494    0.0212 N.am    1  LIG1        -0.75
     21 N          -2.2627   -5.3533    0.2048 N.am    1  LIG1      -0.6399999999999997
     22 N          -1.7470    3.3605   -0.4673 N.pl3   1  LIG1      -0.46999999999999975
     23 N          -0.7446   -1.4190    0.0649 N.pl3   1  LIG1      -0.5999999999999996
     24 O           1.6949   -2.7091   -1.2496 O.3     1  LIG1      -0.7100000000000009
     25 O           3.1469   -0.0755    1.5548 O.3     1  LIG1      -0.6999999999999993
     26 O           3.6604   -2.0925    0.0631 O.3     1  LIG1      -0.7899999999999991
     27 O          -4.3802   -4.5124    0.4203 O.2     1  LIG1      -0.5999999999999996
     28 O          -0.0703   -5.9804   -0.0947 O.2     1  LIG1      -0.5999999999999996
     29 O           2.2013    4.5293    2.0536 O.3     1  LIG1      -0.6899999999999995
     30 O           2.9131    2.2601    2.9994 O.3     1  LIG1      -0.7400000000000002
     31 O           0.7589    2.3768    1.5654 O.2     1  LIG1      -0.7100000000000009
     32 O           3.0575    2.6968    0.4713 O.3     1  LIG1      -0.6099999999999994
     33 P           2.0989    3.0558    1.8176 P.3     1  LIG1       1.1099999999999994
     34 H          -4.7836    3.3490    0.4544 H       1  LIG1       0.18000000000000005
     35 H          -5.5234    2.4316   -0.8643 H       1  LIG1       0.17000000000000004
     36 H          -4.1929    3.5856   -1.1852 H       1  LIG1       0.17000000000000004
     37 H          -0.4016    2.9364   -2.0234 H       1  LIG1       0.16000000000000003
     38 H          -0.4058    4.6194   -1.4494 H       1  LIG1       0.16000000000000003
     39 H           0.3945    3.3613   -0.4737 H       1  LIG1       0.18999999999999995
     40 H          -1.7749    5.2324    0.4957 H       1  LIG1       0.16000000000000003
     41 H          -1.0155    3.9129    1.4475 H       1  LIG1       0.17000000000000004
     42 H          -2.7955    3.9946    1.2594 H       1  LIG1       0.17000000000000004
     43 H          -5.0068    0.1374   -0.2339 H       1  LIG1       0.17000000000000004
     44 H          -0.1952    1.2649   -0.0314 H       1  LIG1       0.22999999999999998
     45 H           0.7860   -0.1937    0.8225 H       1  LIG1       0.19999999999999996
     46 H           1.0147   -1.9098    1.0882 H       1  LIG1       0.19999999999999996
     47 H           1.7003    1.3738   -0.3501 H       1  LIG1       0.16000000000000003
     48 H           3.1476    1.7110   -1.3062 H       1  LIG1       0.15000000000000002
     49 H           1.2253   -0.7443   -1.7230 H       1  LIG1          0.14
     50 H           4.5642    0.4406    0.1440 H       1  LIG1          0.12
     51 H           3.6031   -0.8695   -1.6316 H       1  LIG1       0.07999999999999996
     52 H           0.5201   -3.6057   -0.3397 H       1  LIG1          0.39
     53 H           2.5736   -2.9101   -0.7273 H       1  LIG1       0.41000000000000003
     54 H           3.0111    1.3290    2.7004 H       1  LIG1       0.44999999999999996
     55 H           3.3608   -1.0525    1.5125 H       1  LIG1       0.41000000000000003
@<TRIPOS>BOND
     1    37     2    1
     2    49    12    1
     3    51    15    1
     4    38     2    1
     5    48     7    1
     6    24    12    1
     7    24    53    1
     8    36     1    1
     9     2    39    1
    10     2    22    1
    11    12    15    1
    12    12     6    1
    13    35     1    1
    14    15    26    1
    15    15    13    1
    16     1     8    1
    17     1    34    1
    18    22    10    1
    19    22     3    1
    20    47     7    1
    21    52    20    1
    22     8    10   ar
    23     8     4   ar
    24    10     5   ar
    25     7    13    1
    26     7    32    1
    27    43     4    1
    28     4     9   ar
    29     5    11   ar
    30     5    44    1
    31    28    18    2
    32     9    11   ar
    33     9    19    1
    34    11    23    1
    35    20    18   am
    36    20    16    1
    37    19    14    2
    38    18    21   am
    39    16    23    1
    40    16    14    1
    41    23     6    1
    42    14    17    1
    43    50    13    1
    44    21    17   am
    45    13    25    1
    46    17    27    2
    47     6    45    1
    48     6    46    1
    49    32    33    1
    50    40     3    1
    51     3    42    1
    52     3    41    1
    53    55    25    1
    54    31    33    2
    55    33    29    1
    56    33    30    1
    57    54    30    1
