@<TRIPOS>MOLECULE
KBDKAJNTYKVSEK-VPENINKCSA-L	11095305	-1064.0889888221882
 22 22 0 0 0
SMALL
MULLIKEN NwChem

@<TRIPOS>ATOM
      1 C           0.3311   -0.0402   -1.6407 C.3     1  LIG1       -0.3600000000000003
      2 C          -2.9144    1.4251   -0.5572 C.3     1  LIG1       -0.03000000000000025
      3 C          -0.4824    1.2099   -1.2172 C.3     1  LIG1       0.08000000000000007
      4 C          -1.6564    0.5889   -0.4118 C.3     1  LIG1       0.09999999999999964
      5 C          -0.3884   -1.2171   -0.9364 C.3     1  LIG1       0.33999999999999986
      6 O          -2.6382    2.7700   -0.1571 O.3     1  LIG1      -0.7100000000000009
      7 O           0.1764    2.1995   -0.4540 O.3     1  LIG1      -0.7300000000000004
      8 O           1.4366   -1.6231    2.4559 O.3     1  LIG1      -0.7300000000000004
      9 O           2.5860   -0.8146    0.2416 O.2     1  LIG1      -0.7599999999999998
     10 O           0.8414    0.6815    1.4340 O.3     1  LIG1      -0.7899999999999991
     11 O          -1.7947   -0.7385   -0.8894 O.3     1  LIG1      -0.5600000000000005
     12 O           0.0687   -1.5653    0.2968 O.3     1  LIG1      -0.6500000000000004
     13 P           1.4077   -0.7614    1.2124 P.3     1  LIG1       1.0299999999999994
     14 H           0.2687   -0.1827   -2.7298 H       1  LIG1          0.14
     15 H           1.3788    0.0036   -1.3294 H       1  LIG1       0.17000000000000004
     16 H          -3.7383    1.0299    0.0603 H       1  LIG1          0.13
     17 H          -3.2549    1.3972   -1.6112 H       1  LIG1          0.12
     18 H          -0.8836    1.7126   -2.1151 H       1  LIG1          0.13
     19 H          -1.3435    0.5842    0.6412 H       1  LIG1          0.13
     20 H          -0.4631   -2.1125   -1.5825 H       1  LIG1       0.10999999999999999
     21 H          -1.6544    2.8288   -0.0985 H       1  LIG1       0.42000000000000004
     22 H           0.5617    1.6342    0.3652 H       1  LIG1       0.43999999999999995
@<TRIPOS>BOND
     1    14     1    1
     2    18     3    1
     3     1    15    1
     4     1     3    1
     5     1     5    1
     6    17     2    1
     7    20     5    1
     8     3     7    1
     9     3     4    1
    10     5    11    1
    11     5    12    1
    12    11     4    1
    13     2     4    1
    14     2     6    1
    15     2    16    1
    16     7    22    1
    17     4    19    1
    18     6    21    1
    19     9    13    2
    20    12    13    1
    21    13    10    1
    22    13     8    1
