@<TRIPOS>MOLECULE
KBUNOSOGGAARKZ-KRWDZBQOSA-O	6044748	-913.4111200819417
 59 58 0 0 0
SMALL
MULLIKEN NwChem

@<TRIPOS>ATOM
      1 C           4.9141    1.3982   -7.2193 C.3     1  LIG1      -0.45999999999999996
      2 C           4.7011    2.2764   -5.9810 C.3     1  LIG1      -0.2599999999999998
      3 C           3.2238    2.5790   -5.6777 C.3     1  LIG1      -0.2599999999999998
      4 C           2.3385    1.3431   -5.4366 C.3     1  LIG1      -0.2699999999999996
      5 C           2.8166    0.4073   -4.3128 C.3     1  LIG1      -0.2699999999999996
      6 C           2.9830    1.0724   -2.9355 C.3     1  LIG1      -0.2699999999999996
      7 C           1.7236    1.7692   -2.3913 C.3     1  LIG1      -0.2699999999999996
      8 C           0.4791    0.8714   -2.2776 C.3     1  LIG1      -0.2699999999999996
      9 C           0.6641   -0.3933   -1.4206 C.3     1  LIG1      -0.2699999999999996
     10 C           1.1293   -0.1387    0.0239 C.3     1  LIG1      -0.2699999999999996
     11 C           0.2196    0.7911    0.8465 C.3     1  LIG1      -0.2699999999999996
     12 C          -1.2481    0.3422    0.9517 C.3     1  LIG1      -0.2699999999999996
     13 C          -1.4592   -1.0700    1.5238 C.3     1  LIG1      -0.2699999999999996
     14 C          -0.8162   -1.3275    2.8943 C.3     1  LIG1      -0.29000000000000004
     15 C          -1.2453   -0.3318    4.0171 C.3     1  LIG1       -0.3700000000000001
     16 C          -2.8492   -2.6877    5.3674 C.3     1  LIG1       -0.04999999999999982
     17 CA         -3.3227   -1.2335    5.3615 C.3     1  LIG1       -0.09999999999999964
     18 C          -2.7262   -0.3432    4.2279 C.2     1  LIG1           0.5
     19 N          -4.8125   -1.2177    5.1111 N.4     1  LIG1       -0.7300000000000004
     20 O          -3.3965   -3.2435    4.1799 O.3     1  LIG1      -0.6500000000000004
     21 O          -3.5195    0.3061    3.5677 O.2     1  LIG1      -0.4900000000000002
     22 H           4.4909    0.3961   -7.0840 H       1  LIG1       0.15000000000000002
     23 H           5.9805    1.2778   -7.4400 H       1  LIG1          0.14
     24 H           4.4378    1.8419   -8.1026 H       1  LIG1          0.14
     25 H           5.1696    1.7980   -5.1099 H       1  LIG1          0.14
     26 H           5.2287    3.2293   -6.1194 H       1  LIG1          0.13
     27 H           3.1704    3.2441   -4.8048 H       1  LIG1          0.14
     28 H           2.8000    3.1490   -6.5165 H       1  LIG1          0.13
     29 H           1.3165    1.6834   -5.2212 H       1  LIG1          0.14
     30 H           2.2657    0.7607   -6.3640 H       1  LIG1          0.13
     31 H           2.1104   -0.4304   -4.2326 H       1  LIG1          0.14
     32 H           3.7765   -0.0429   -4.5975 H       1  LIG1          0.13
     33 H           3.3201    0.3113   -2.2184 H       1  LIG1          0.13
     34 H           3.7925    1.8118   -2.9834 H       1  LIG1          0.14
     35 H           1.9586    2.1980   -1.4073 H       1  LIG1          0.13
     36 H           1.4740    2.6237   -3.0329 H       1  LIG1          0.14
     37 H          -0.3495    1.4704   -1.8753 H       1  LIG1          0.13
     38 H           0.1596    0.5626   -3.2809 H       1  LIG1          0.14
     39 H          -0.2826   -0.9514   -1.4104 H       1  LIG1          0.13
     40 H           1.3922   -1.0571   -1.9032 H       1  LIG1          0.14
     41 H           1.2288   -1.1070    0.5350 H       1  LIG1          0.13
     42 H           2.1383    0.2914    0.0111 H       1  LIG1          0.14
     43 H           0.6503    0.9019    1.8528 H       1  LIG1          0.14
     44 H           0.2381    1.7974    0.4110 H       1  LIG1          0.14
     45 H          -1.8075    1.0677    1.5562 H       1  LIG1          0.13
     46 H          -1.7097    0.3727   -0.0423 H       1  LIG1          0.14
     47 H          -2.5359   -1.2761    1.5819 H       1  LIG1          0.14
     48 H          -1.0482   -1.8136    0.8305 H       1  LIG1       0.15000000000000002
     49 H          -1.0390   -2.3533    3.2092 H       1  LIG1       0.16000000000000003
     50 H           0.2737   -1.2495    2.8249 H       1  LIG1       0.17000000000000004
     51 H          -0.7227   -0.5783    4.9487 H       1  LIG1       0.18999999999999995
     52 H          -0.9665    0.6842    3.7250 H       1  LIG1       0.19999999999999996
     53 H1         -1.7535   -2.7096    5.3816 H       1  LIG1       0.18999999999999995
     54 H2         -3.2140   -3.2017    6.2685 H       1  LIG1       0.19999999999999996
     55 HA         -3.1173   -0.7522    6.3229 H       1  LIG1          0.26
     56 H1         -5.3907   -1.1440    5.9516 H       1  LIG1      0.44999999999999996
     57 H2         -4.9652   -0.4053    4.4672 H       1  LIG1      0.43999999999999995
     58 H3         -5.0456   -2.0787    4.5897 H       1  LIG1      0.43999999999999995
     59 H          -3.1969   -4.1916    4.1257 H       1  LIG1       0.44999999999999996
@<TRIPOS>BOND
     1    24     1    1
     2    23     1    1
     3     1    22    1
     4     1     2    1
     5    28     3    1
     6    30     4    1
     7    26     2    1
     8     2     3    1
     9     2    25    1
    10     3     4    1
    11     3    27    1
    12     4    29    1
    13     4     5    1
    14    32     5    1
    15     5    31    1
    16     5     6    1
    17    38     8    1
    18    36     7    1
    19    34     6    1
    20     6     7    1
    21     6    33    1
    22     7     8    1
    23     7    35    1
    24     8    37    1
    25     8     9    1
    26    40     9    1
    27     9    39    1
    28     9    10    1
    29    46    12    1
    30    42    10    1
    31    10    41    1
    32    10    11    1
    33    44    11    1
    34    48    13    1
    35    11    12    1
    36    11    43    1
    37    12    13    1
    38    12    45    1
    39    13    47    1
    40    13    14    1
    41    50    14    1
    42    14    49    1
    43    14    15    1
    44    21    18    2
    45    52    15    1
    46    15    18    1
    47    15    51    1
    48    59    20    1
    49    20    16    1
    50    18    17    1
    51    57    19    1
    52    58    19    1
    53    19    17    1
    54    19    56    1
    55    17    16    1
    56    17    55    1
    57    16    53    1
    58    16    54    1
