@<TRIPOS>MOLECULE
KCEGBPIYGIWCDH-UHFFFAOYSA-O	6044749	-615.1917690846185
 34 33 0 0 0
SMALL
MULLIKEN NwChem

@<TRIPOS>ATOM
      1 C           1.7501    1.7809   -3.1738 C.3     1  LIG1      -0.4800000000000004
      2 C          -0.8556   -0.4899    0.0868 C.3     1  LIG1      -0.28000000000000025
      3 C          -0.1010    0.8100   -0.2494 C.3     1  LIG1      -0.2999999999999998
      4 C          -0.5333   -1.1066    1.4610 C.3     1  LIG1      -0.2699999999999996
      5 C           1.4411    0.7667   -0.2775 C.3     1  LIG1      -0.2999999999999998
      6 C          -0.8168   -0.2006    2.6654 C.3     1  LIG1       -0.3700000000000001
      7 C           1.8350    0.3023   -2.8323 C.3     1  LIG1          0.0
      8 C           2.1690   -0.0656   -1.3539 C.3     1  LIG1      0.019999999999999574
      9 C          -2.2868    0.1419    2.8226 C.2     1  LIG1       0.5999999999999996
     10 N           0.5470   -0.4432   -3.1583 N.4     1  LIG1       -0.7400000000000002
     11 N           1.9031   -1.5182   -1.2376 N.3     1  LIG1      -0.7999999999999998
     12 O          -3.1857   -0.2670    2.1191 O.2     1  LIG1      -0.5099999999999998
     13 O          -2.4809    0.9703    3.8694 O.3     1  LIG1      -0.5800000000000001
     14 H           0.9492    2.2859   -2.6266 H       1  LIG1       0.18000000000000005
     15 H           1.5953    1.9351   -4.2463 H       1  LIG1       0.18000000000000005
     16 H           2.6949    2.2633   -2.9043 H       1  LIG1       0.18999999999999995
     17 H          -1.9286   -0.2800    0.0599 H       1  LIG1       0.15000000000000002
     18 H          -0.6735   -1.2553   -0.6793 H       1  LIG1          0.14
     19 H          -0.3783    1.5726    0.4877 H       1  LIG1       0.16000000000000003
     20 H          -0.4862    1.2194   -1.1966 H       1  LIG1       0.15000000000000002
     21 H          -1.1270   -2.0207    1.5659 H       1  LIG1       0.15000000000000002
     22 H           0.5207   -1.4149    1.5168 H       1  LIG1       0.15000000000000002
     23 H           1.8091    0.4181    0.6955 H       1  LIG1       0.17000000000000004
     24 H           1.8094    1.7948   -0.3703 H       1  LIG1       0.17000000000000004
     25 H          -0.4985   -0.6923    3.5929 H       1  LIG1       0.19999999999999996
     26 H          -0.2496    0.7376    2.6296 H       1  LIG1       0.19999999999999996
     27 H           2.5829   -0.1831   -3.4691 H       1  LIG1       0.20999999999999996
     28 H           3.2396    0.1496   -1.2395 H       1  LIG1       0.17000000000000004
     29 H           0.4371   -0.6596   -4.1521 H       1  LIG1      0.43999999999999995
     30 H           0.6642   -1.3223   -2.5698 H       1  LIG1      0.43999999999999995
     31 H          -0.2844    0.0602   -2.8352 H       1  LIG1      0.43000000000000005
     32 H           2.7248   -2.0699   -1.4785 H       1  LIG1          0.36
     33 H           1.6327   -1.7785   -0.2932 H       1  LIG1          0.36
     34 H          -3.4414    1.1337    3.9345 H       1  LIG1       0.43999999999999995
@<TRIPOS>BOND
     1    15     1    1
     2    29    10    1
     3    27     7    1
     4     1    16    1
     5     1     7    1
     6     1    14    1
     7    10    31    1
     8    10     7    1
     9    10    30    1
    10     7     8    1
    11    32    11    1
    12     8    28    1
    13     8    11    1
    14     8     5    1
    15    11    33    1
    16    20     3    1
    17    18     2    1
    18    24     5    1
    19     5     3    1
    20     5    23    1
    21     3     2    1
    22     3    19    1
    23    17     2    1
    24     2     4    1
    25     4    22    1
    26     4    21    1
    27     4     6    1
    28    12     9    2
    29    26     6    1
    30     6     9    1
    31     6    25    1
    32     9    13    1
    33    13    34    1
