@<TRIPOS>MOLECULE
KDTSHFARGAKYJN-IBOSZNHHSA-L	11095304	-3262.1713728809896
 77 79 0 0 0
SMALL
MULLIKEN NwChem

@<TRIPOS>ATOM
      1 C          -3.0099    0.1105    3.2509 C.3     1  LIG1      -0.4900000000000002
      2 C          -4.2667   -1.5731    4.6034 C.3     1  LIG1      -0.45999999999999996
      3 C          -5.7912    1.0449   -1.5749 C.3     1  LIG1       -0.3799999999999999
      4 C          -4.6229    0.1250   -1.2230 C.3     1  LIG1       -0.1299999999999999
      5 C          -7.9603    2.6756   -2.7174 C.3     1  LIG1       -0.11000000000000032
      6 C          -8.6559    3.9167   -3.3095 C.3     1  LIG1       -0.3700000000000001
      7 C           3.5357   -1.7892    1.9671 C.3     1  LIG1       -0.09999999999999964
      8 C          -2.2854   -2.3632    3.3012 C.3     1  LIG1       -0.09999999999999964
      9 C           6.7057    3.0257   -3.1333 C.ar    1  LIG1       0.15000000000000036
     10 C           6.5321    0.8651    0.6369 C.ar    1  LIG1       0.21999999999999975
     11 C           3.1967   -0.9246    0.7583 C.3     1  LIG1       0.08000000000000007
     12 C          -5.6597    1.6598   -2.9727 C.2     1  LIG1       0.5999999999999996
     13 C           7.5888    1.9205   -0.8731 C.ar    1  LIG1       0.1900000000000004
     14 C           3.7822   -1.3837   -0.5896 C.3     1  LIG1       0.1200000000000001
     15 C           3.7251   -0.0545   -1.3717 C.3     1  LIG1       0.04999999999999982
     16 C          -4.3735   -1.6884    2.0782 C.3     1  LIG1       0.08000000000000007
     17 C           8.4893    2.5544   -1.7487 C.ar    1  LIG1       0.45999999999999996
     18 C           6.2462    1.9177   -1.2759 C.ar    1  LIG1          0.54
     19 C          -3.9370   -1.0454    0.7382 C.2     1  LIG1       0.5199999999999996
     20 C           4.1310    0.9516   -0.2698 C.3     1  LIG1       0.28000000000000025
     21 C          -3.4677   -1.3579    3.3037 C.3     1  LIG1       0.07000000000000028
     22 N           9.8233    2.6577   -1.4624 N.pl3   1  LIG1      -0.7800000000000002
     23 N          -6.6745    2.4622   -3.3708 N.am    1  LIG1      -0.5899999999999999
     24 N          -4.8742   -0.5028    0.0708 N.2     1  LIG1      -0.5300000000000002
     25 N           8.0271    3.1015   -2.8862 N.ar    1  LIG1      -0.5499999999999998
     26 N           5.7458    2.4595   -2.3975 N.ar    1  LIG1      -0.5499999999999998
     27 N           7.7518    1.2550    0.3286 N.ar    1  LIG1      -0.5800000000000001
     28 N           5.5777    1.2313   -0.2892 N.ar    1  LIG1      -0.5199999999999996
     29 O          -4.6670    1.4329   -3.6732 O.2     1  LIG1      -0.6099999999999994
     30 O           3.1818   -2.4676   -1.2314 O.3     1  LIG1      -0.6899999999999995
     31 O           2.3819    0.1443   -1.7628 O.3     1  LIG1      -0.6600000000000001
     32 O          -5.7044   -1.2965    2.3343 O.3     1  LIG1      -0.6999999999999993
     33 O          -2.6806   -1.1614    0.2653 O.2     1  LIG1      -0.6799999999999997
     34 O           0.9630   -3.0216    0.4251 O.3     1  LIG1        -0.75
     35 O           1.5953   -5.1605    1.7878 O.2     1  LIG1      -0.5800000000000001
     36 O          -0.3107   -1.1441    1.6335 O.2     1  LIG1      -0.7599999999999998
     37 O           1.0483   -0.4983    3.8114 O.3     1  LIG1      -0.6199999999999992
     38 O           3.1620   -3.1608    1.7672 O.3     1  LIG1      -0.5500000000000007
     39 O          -1.1305   -1.8333    3.9688 O.3     1  LIG1      -0.5500000000000007
     40 O           3.8108    0.3706    0.9725 O.3     1  LIG1      -0.5500000000000007
     41 O           0.9046   -2.9457    2.9670 O.3     1  LIG1      -0.6600000000000001
     42 P           1.6297   -3.6881    1.7337 P.3     1  LIG1       1.2400000000000002
     43 P           0.1572   -1.4256    3.0715 P.3     1  LIG1       1.2599999999999998
     44 S          -8.8735    3.8453   -5.1364 S.3     1  LIG1      -0.8299999999999983
     45 H          -2.4876    0.3857    4.1710 H       1  LIG1       0.16000000000000003
     46 H          -2.3318    0.3141    2.4190 H       1  LIG1       0.15000000000000002
     47 H          -3.8938    0.7476    3.1375 H       1  LIG1       0.16000000000000003
     48 H          -5.0741   -0.8429    4.6898 H       1  LIG1       0.16000000000000003
     49 H          -3.5940   -1.4736    5.4642 H       1  LIG1       0.15000000000000002
     50 H          -4.7186   -2.5725    4.6298 H       1  LIG1       0.15000000000000002
     51 H          -5.8716    1.8431   -0.8241 H       1  LIG1       0.18000000000000005
     52 H          -6.7334    0.4838   -1.5067 H       1  LIG1       0.18000000000000005
     53 H          -3.6771    0.6792   -1.2238 H       1  LIG1       0.15000000000000002
     54 H          -4.5144   -0.6437   -1.9983 H       1  LIG1       0.16000000000000003
     55 H          -8.6136    1.7992   -2.8560 H       1  LIG1       0.15000000000000002
     56 H          -7.8003    2.8085   -1.6367 H       1  LIG1       0.16000000000000003
     57 H          -8.0614    4.7976   -3.0138 H       1  LIG1          0.14
     58 H          -9.6245    4.0075   -2.7918 H       1  LIG1       0.15000000000000002
     59 H           3.0641   -1.3794    2.8660 H       1  LIG1       0.19999999999999996
     60 H           4.6228   -1.8016    2.1010 H       1  LIG1       0.19999999999999996
     61 H          -2.5722   -3.2727    3.8406 H       1  LIG1       0.18000000000000005
     62 H          -2.0226   -2.6697    2.2858 H       1  LIG1       0.17000000000000004
     63 H           6.3817    3.4856   -4.0647 H       1  LIG1       0.17000000000000004
     64 H           6.2472    0.3179    1.5227 H       1  LIG1       0.21999999999999997
     65 H           2.1164   -0.7797    0.6707 H       1  LIG1       0.16000000000000003
     66 H           4.8430   -1.6323   -0.4313 H       1  LIG1       0.17000000000000004
     67 H           4.4121   -0.0248   -2.2258 H       1  LIG1       0.18000000000000005
     68 H          -4.3376   -2.7847    1.9217 H       1  LIG1       0.16000000000000003
     69 H           3.6127    1.9097   -0.3930 H       1  LIG1       0.18999999999999995
     70 H          10.4275    2.8769   -2.2421 H       1  LIG1          0.37
     71 H          10.1856    2.0254   -0.7620 H       1  LIG1          0.37
     72 H           2.2650   -2.5603   -0.9073 H       1  LIG1       0.44999999999999996
     73 H           2.3334    0.9533   -2.2944 H       1  LIG1       0.43999999999999995
     74 H          -5.9636   -0.8486    1.4914 H       1  LIG1       0.41000000000000003
     75 H           0.3605   -2.2490    0.7047 H       1  LIG1           0.5
     76 H          -1.9532   -1.1906    0.9349 H       1  LIG1          0.49
     77 H          -6.6853    2.7675   -4.3485 H       1  LIG1       0.32999999999999996
@<TRIPOS>BOND
     1    44     6    1
     2    77    23    1
     3    63     9    1
     4    29    12    2
     5    23    12   am
     6    23     5    1
     7     6    57    1
     8     6    58    1
     9     6     5    1
    10     9    25   ar
    11     9    26   ar
    12    12     3    1
    13    25    17   ar
    14    55     5    1
    15     5    56    1
    16    26    18   ar
    17    73    31    1
    18    70    22    1
    19    67    15    1
    20    54     4    1
    21    31    15    1
    22    17    22    1
    23    17    13   ar
    24     3    52    1
    25     3     4    1
    26     3    51    1
    27    22    71    1
    28    15    14    1
    29    15    20    1
    30    18    13   ar
    31    18    28   ar
    32    30    72    1
    33    30    14    1
    34    53     4    1
    35     4    24    1
    36    13    27   ar
    37    14    66    1
    38    14    11    1
    39    69    20    1
    40    28    20    1
    41    28    10   ar
    42    20    40    1
    43    24    19    2
    44    33    19    1
    45    33    76    1
    46    27    10   ar
    47    34    75    1
    48    34    42    1
    49    10    64    1
    50    65    11    1
    51    19    16    1
    52    11    40    1
    53    11     7    1
    54    74    32    1
    55    36    43    2
    56    42    38    1
    57    42    35    2
    58    42    41    1
    59    38     7    1
    60    68    16    1
    61     7    60    1
    62     7    59    1
    63    16    32    1
    64    16    21    1
    65    62     8    1
    66    46     1    1
    67    41    43    1
    68    43    37    1
    69    43    39    1
    70    47     1    1
    71     1    21    1
    72     1    45    1
    73     8    21    1
    74     8    61    1
    75     8    39    1
    76    21     2    1
    77     2    50    1
    78     2    48    1
    79     2    49    1
