@<TRIPOS>MOLECULE
KDVFRMMRZOCFLS-UHFFFAOYSA-M	6044751	-420.48691018323035
 15 14 0 0 0
SMALL
MULLIKEN NwChem

@<TRIPOS>ATOM
      1 C           0.2102    1.4392   -2.0833 C.3     1  LIG1      -0.46999999999999975
      2 C           0.3416   -0.0802   -1.9198 C.3     1  LIG1      -0.2699999999999996
      3 C           1.1877   -0.4765   -0.6997 C.3     1  LIG1       -0.33999999999999986
      4 C           0.6470    0.0535    0.6404 C.2     1  LIG1       0.3799999999999999
      5 C          -0.8880   -0.0188    0.7990 C.2     1  LIG1       0.4900000000000002
      6 O           1.4278    0.4292    1.5089 O.2     1  LIG1      -0.5500000000000007
      7 O          -1.3001   -1.2053    0.8579 O.co2   1  LIG1      -0.6500000000000004
      8 O          -1.5047    1.0735    0.7994 O.co2   1  LIG1      -0.6400000000000006
      9 H          -0.3046    1.8555   -1.2108 H       1  LIG1       0.15000000000000002
     10 H          -0.3675    1.6964   -2.9811 H       1  LIG1       0.15000000000000002
     11 H           1.1977    1.9136   -2.1712 H       1  LIG1       0.15000000000000002
     12 H          -0.6544   -0.5228   -1.8002 H       1  LIG1          0.14
     13 H           0.7828   -0.5240   -2.8251 H       1  LIG1          0.14
     14 H           1.2047   -1.5721   -0.6140 H       1  LIG1       0.17000000000000004
     15 H           2.2254   -0.1305   -0.8014 H       1  LIG1       0.15000000000000002
@<TRIPOS>BOND
     1    10     1    1
     2    13     2    1
     3    11     1    1
     4     1     2    1
     5     1     9    1
     6     2    12    1
     7     2     3    1
     8    15     3    1
     9     3    14    1
    10     3     4    1
    11     4     5    1
    12     4     6    2
    13     5     8   ar
    14     5     7   ar
