@<TRIPOS>MOLECULE
KDXKERNSBIXSRK-RXMQYKEDSA-O	6044752	-497.3222587737633
 25 24 0 0 0
SMALL
MULLIKEN NwChem

@<TRIPOS>ATOM
      1 CG         -1.0435    0.0009    0.4255 C.3     1  LYS1      -0.2699999999999996
      2 CD         -1.7732    1.2455    0.9584 C.3     1  LYS1      -0.2999999999999998
      3 CB          0.4929    0.0784    0.3938 C.3     1  LYS1      -0.33000000000000007
      4 CE         -1.4926    1.6208    2.4123 C.3     1  LYS1      -0.17999999999999972
      5 CA          1.1555   -1.0534   -0.4630 C.3     1  LYS1       -0.03000000000000025
      6 C           0.7921   -0.7944   -1.9229 C.2     1  LYS1       0.5999999999999996
      7 NZ         -0.1283    2.3038    2.5571 N.4     1  LYS1       -0.7199999999999998
      8 N           0.7749   -2.4097   -0.1369 N.3     1  LYS1      -0.7800000000000002
      9 OXT        -0.1677   -1.2781   -2.4800 O.2     1  LYS1      -0.5099999999999998
     10 O           1.6196    0.1062   -2.4886 O.3     1  LYS1      -0.5800000000000001
     11 HG1        -1.4080   -0.1776   -0.5917 H       1  LYS1       0.16000000000000003
     12 HG2        -1.3476   -0.8750    1.0109 H       1  LYS1       0.16000000000000003
     13 HD1        -1.5790    2.1156    0.3136 H       1  LYS1       0.17000000000000004
     14 HD2        -2.8542    1.0725    0.8977 H       1  LYS1       0.18000000000000005
     15 HB1         0.8306    1.0475   -0.0059 H       1  LYS1       0.17000000000000004
     16 HB2         0.9091   -0.0373    1.4112 H       1  LYS1       0.18000000000000005
     17 HE1        -2.2186    2.3358    2.8059 H       1  LYS1       0.21999999999999997
     18 HE2        -1.4612    0.7476    3.0694 H       1  LYS1       0.21999999999999997
     19 HA          2.2407   -0.9454   -0.3611 H       1  LYS1       0.17000000000000004
     20 HZ1        -0.0950    3.1729    2.0106 H       1  LYS1      0.43999999999999995
     21 HZ2         0.0867    2.5389    3.5337 H       1  LYS1      0.44999999999999996
     22 HZ3         0.6170    1.6915    2.1984 H       1  LYS1      0.44999999999999996
     23 H1          0.8369   -2.6101    0.8564 H       1  LYS1       0.33999999999999997
     24 H2         -0.1553   -2.6300   -0.4814 H       1  LYS1       0.32999999999999996
     25 H           1.3186    0.2410   -3.4085 H       1  LYS1       0.44999999999999996
@<TRIPOS>BOND
     1    25    10    1
     2    10     6    1
     3     9     6    2
     4     6     5    1
     5    11     1    1
     6    24     8    1
     7     5    19    1
     8     5     8    1
     9     5     3    1
    10     8    23    1
    11    15     3    1
    12    13     2    1
    13     3     1    1
    14     3    16    1
    15     1     2    1
    16     1    12    1
    17    14     2    1
    18     2     4    1
    19    20     7    1
    20    22     7    1
    21     4     7    1
    22     4    17    1
    23     4    18    1
    24     7    21    1
