@<TRIPOS>MOLECULE
KDXKERNSBIXSRK-YFKPBYRVSA-O	6044753	-497.32231766956744
 25 24 0 0 0
SMALL
MULLIKEN NwChem

@<TRIPOS>ATOM
      1 CG          0.5522    1.1416    0.3473 C.3     1  LYS1      -0.2699999999999996
      2 CD         -0.0003    2.4762   -0.1829 C.3     1  LYS1      -0.29000000000000004
      3 CB          0.1265   -0.1009   -0.4494 C.3     1  LYS1      -0.3099999999999996
      4 CE          0.4136    2.8540   -1.6051 C.3     1  LYS1      -0.17999999999999972
      5 CA          0.4573   -1.4580    0.2132 C.3     1  LYS1       -0.04999999999999982
      6 C          -0.3849   -1.5951    1.4868 C.2     1  LYS1       0.5899999999999999
      7 NZ         -0.3839    2.0671   -2.6511 N.4     1  LYS1       -0.7199999999999998
      8 N           0.1829   -2.5176   -0.7528 N.3     1  LYS1      -0.7599999999999998
      9 O          -1.5412   -1.9530    1.4813 O.2     1  LYS1      -0.5099999999999998
     10 OXT         0.2901   -1.2335    2.5981 O.3     1  LYS1      -0.5700000000000003
     11 HG1         0.2224    1.0405    1.3864 H       1  LYS1       0.16000000000000003
     12 HG2         1.6482    1.1905    0.3835 H       1  LYS1       0.16000000000000003
     13 HD1        -1.0974    2.4987   -0.1042 H       1  LYS1       0.18000000000000005
     14 HD2         0.3572    3.2895    0.4593 H       1  LYS1       0.18000000000000005
     15 HB1        -0.9592   -0.0882   -0.6357 H       1  LYS1       0.17000000000000004
     16 HB2         0.6452   -0.1515   -1.4203 H       1  LYS1       0.17000000000000004
     17 HE1         0.2231    3.9065   -1.8269 H       1  LYS1       0.21999999999999997
     18 HE2         1.4658    2.6336   -1.8043 H       1  LYS1       0.21999999999999997
     19 HA          1.5186   -1.4742    0.4792 H       1  LYS1       0.18000000000000005
     20 HZ1        -1.3901    2.2528   -2.5613 H       1  LYS1      0.43999999999999995
     21 HZ2        -0.1051    2.3067   -3.6101 H       1  LYS1      0.44999999999999996
     22 HZ3        -0.2480    1.0552   -2.5189 H       1  LYS1      0.43999999999999995
     23 H1          0.6460   -3.3786   -0.4669 H       1  LYS1       0.33999999999999997
     24 H2         -0.8179   -2.7196   -0.7347 H       1  LYS1       0.31999999999999995
     25 HXT        -0.3128   -1.3473    3.3598 H       1  LYS1       0.44999999999999996
@<TRIPOS>BOND
     1    21     7    1
     2     7    20    1
     3     7    22    1
     4     7     4    1
     5    17     4    1
     6    18     4    1
     7     4     2    1
     8    16     3    1
     9     8    24    1
    10     8    23    1
    11     8     5    1
    12    15     3    1
    13     3     5    1
    14     3     1    1
    15     2    13    1
    16     2     1    1
    17     2    14    1
    18     5    19    1
    19     5     6    1
    20     1    12    1
    21     1    11    1
    22     9     6    2
    23     6    10    1
    24    10    25    1
