@<TRIPOS>MOLECULE
KDYFGRWQOYBRFD-UHFFFAOYSA-L	6044754	-455.9697330565147
 12 11 0 0 0
SMALL
MULLIKEN NwChem

@<TRIPOS>ATOM
      1 C           0.4207   -0.5611   -0.5027 C.3     1  LIG1       -0.33999999999999986
      2 C          -0.4013   -0.2385    0.7522 C.3     1  LIG1       -0.33999999999999986
      3 C          -0.3885   -0.8568   -1.8159 C.2     1  LIG1       0.5099999999999998
      4 C           0.4061    0.3158    1.9789 C.2     1  LIG1           0.5
      5 O          -1.4588   -0.2061   -1.9859 O.co2   1  LIG1      -0.6799999999999997
      6 O           0.1333   -1.6962   -2.6082 O.co2   1  LIG1      -0.7100000000000009
      7 O           0.0588   -0.1155    3.1179 O.co2   1  LIG1      -0.6999999999999993
      8 O           1.3048    1.1682    1.7241 O.co2   1  LIG1      -0.6899999999999995
      9 H           1.0982   -1.4091   -0.3193 H       1  LIG1       0.09999999999999998
     10 H           1.0710    0.3087   -0.6838 H       1  LIG1          0.12
     11 H          -1.1463    0.5142    0.4518 H       1  LIG1          0.12
     12 H          -0.9734   -1.1194    1.0805 H       1  LIG1       0.09999999999999998
@<TRIPOS>BOND
     1     6     3   ar
     2     5     3   ar
     3     3     1    1
     4    10     1    1
     5     1     9    1
     6     1     2    1
     7    11     2    1
     8     2    12    1
     9     2     4    1
    10     8     4   ar
    11     4     7   ar
