@<TRIPOS>MOLECULE
KDZOASGQNOPSCU-ZBHICJROSA-M	6119242	-1061.4009702926487
 37 36 0 0 0
SMALL
MULLIKEN NwChem

@<TRIPOS>ATOM
      1 C1          2.9803   -1.0936    0.6249 C.3     1  <1>       -0.28000000000000025
      2 C2          1.8993   -1.4825    1.6492 C.3     1  <1>       -0.29000000000000004
      3 C3          2.4426   -0.3101   -0.5827 C.3     1  <1>        -0.16000000000000014
      4 C4         -1.6801    1.5255   -0.0922 C.3     1  <1>        -0.3799999999999999
      5 C5          1.6130   -0.4876    2.8068 C.3     1  <1>        -0.04999999999999982
      6 C6         -0.7939    0.3066   -0.4457 C.3     1  <1>        -0.08000000000000007
      7 C7         -2.8788    1.6247   -0.9855 C.2     1  <1>        0.6299999999999999
      8 C8          1.5396    0.9675    2.3399 C.2     1  <1>        0.5800000000000001
      9 C9         -1.5809   -0.9823   -0.2029 C.2     1  <1>        0.6299999999999999
     10 C10         0.6218   -0.5560   -2.2810 C.cat   1  <1>        0.5800000000000001
     11 N1          0.4076   -0.9303    3.4907 N.3     1  <1>       -0.7699999999999996
     12 N2          0.6392   -0.9942   -3.4849 N.pl3   1  <1>       -0.7199999999999998
     13 N3          1.4782   -1.1306   -1.3337 N.pl3   1  <1>       -0.5999999999999996
     14 N4         -0.2097    0.4566   -1.7706 N.pl3   1  <1>       -0.6100000000000003
     15 O1         -4.0463    1.2826   -0.6393 O.co2   1  <1>       -0.34999999999999964
     16 O2         -2.8373    2.0011   -2.1880 O.co2   1  <1>       -0.3699999999999992
     17 O3          0.5203    1.5878    2.1029 O.2     1  <1>       -0.5099999999999998
     18 O4          2.7647    1.5356    2.2228 O.3     1  <1>       -0.5800000000000001
     19 O5         -1.6911   -1.5029    0.8877 O.2     1  <1>          -0.5
     20 O6         -2.1711   -1.4478   -1.3188 O.3     1  <1>       -0.5700000000000003
     21 H1          3.4502   -2.0107    0.2456 H       1  <1>        0.16000000000000003
     22 H2          3.7795   -0.5114    1.0968 H       1  <1>        0.16000000000000003
     23 H3          0.9608   -1.6746    1.1180 H       1  <1>        0.16000000000000003
     24 H4          2.1599   -2.4250    2.1403 H       1  <1>        0.16000000000000003
     25 H5          1.9455    0.6104   -0.2677 H       1  <1>        0.17000000000000004
     26 H6          3.2799   -0.0003   -1.2271 H       1  <1>        0.16000000000000003
     27 H7         -2.0006    1.4397    0.9491 H       1  <1>        0.22999999999999998
     28 H8         -1.0712    2.4280   -0.2010 H       1  <1>        0.22999999999999998
     29 H9          2.4578   -0.5310    3.5059 H       1  <1>        0.18000000000000005
     30 H10        -0.0122    0.3010    0.3051 H       1  <1>        0.20999999999999996
     31 H11         0.1511   -0.2722    4.2241 H       1  <1>        0.32999999999999996
     32 H12        -0.3707   -0.9526    2.8306 H       1  <1>        0.32999999999999996
     33 H13        -0.1453   -0.6251   -4.0268 H       1  <1>        0.31000000000000005
     34 H14         1.9357   -1.9202   -1.7807 H       1  <1>           0.35
     35 H15        -0.8755    0.7827   -2.4640 H       1  <1>           0.36
     36 H16         2.6212    2.4529    1.9200 H       1  <1>        0.44999999999999996
     37 H17        -2.6747   -2.2462   -1.0697 H       1  <1>        0.45999999999999996
@<TRIPOS>BOND
     1    33    12    1
     2    12    10    2
     3    35    14    1
     4    10    14    1
     5    10    13    1
     6    16     7   ar
     7    34    13    1
     8    14     6    1
     9    13     3    1
    10    20    37    1
    11    20     9    1
    12    26     3    1
    13     7    15   ar
    14     7     4    1
    15     3    25    1
    16     3     1    1
    17     6     9    1
    18     6     4    1
    19     6    30    1
    20     9    19    2
    21    28     4    1
    22     4    27    1
    23    21     1    1
    24     1    22    1
    25     1     2    1
    26    23     2    1
    27     2    24    1
    28     2     5    1
    29    36    18    1
    30    17     8    2
    31    18     8    1
    32     8     5    1
    33     5    11    1
    34     5    29    1
    35    32    11    1
    36    11    31    1
