@<TRIPOS>MOLECULE
KHPXUQMNIQBQEV-UHFFFAOYSA-L	6044759	-530.0031733140921
 11 10 0 0 0
SMALL
MULLIKEN NwChem

@<TRIPOS>ATOM
      1 C           0.2712    0.9881   -0.3791 C.3     1  LIG1       -0.4500000000000002
      2 C           0.3906   -0.4935   -0.7031 C.2     1  LIG1       0.3700000000000001
      3 C           0.9709    1.5153    0.9547 C.2     1  LIG1       0.5300000000000002
      4 C          -0.8882   -1.3973   -0.5810 C.2     1  LIG1       0.4500000000000002
      5 O           1.4284   -0.9454   -1.1885 O.2     1  LIG1      -0.5500000000000007
      6 O           1.1184    2.7688    0.9802 O.co2   1  LIG1      -0.6799999999999997
      7 O           1.2640    0.6694    1.8319 O.co2   1  LIG1      -0.6699999999999999
      8 O          -0.7578   -2.5539   -0.1160 O.co2   1  LIG1      -0.6500000000000004
      9 O          -1.9191   -0.8411   -1.0634 O.co2   1  LIG1      -0.6500000000000004
     10 H          -0.7890    1.2587   -0.3323 H       1  LIG1       0.15000000000000002
     11 H           0.7234    1.5533   -1.2060 H       1  LIG1       0.15000000000000002
@<TRIPOS>BOND
     1    11     1    1
     2     5     2    2
     3     9     4   ar
     4     2     4    1
     5     2     1    1
     6     4     8   ar
     7     1    10    1
     8     1     3    1
     9     3     6   ar
    10     3     7   ar
