@<TRIPOS>MOLECULE
KHWCHTKSEGGWEX-RRKCRQDMSA-L	11095300	-1454.9266786200537
 34 36 0 0 0
SMALL
MULLIKEN NwChem

@<TRIPOS>ATOM
      1 C          -0.5240   -0.9303    0.9093 C.3     1  LIG1       -0.3099999999999996
      2 C           2.6310   -0.8874   -0.6525 C.3     1  LIG1       -0.019999999999999574
      3 C          -4.7824    1.8054    0.3155 C.ar    1  LIG1       0.15000000000000036
      4 C          -1.5095    0.2809   -2.0963 C.ar    1  LIG1       0.21999999999999975
      5 C           0.9538   -1.0827    1.3190 C.3     1  LIG1       0.1200000000000001
      6 C           1.6998   -0.1571    0.3206 C.3     1  LIG1       0.08999999999999986
      7 C          -0.5460    0.4483    0.2451 C.3     1  LIG1       0.2999999999999998
      8 C          -3.5161    0.9162   -1.8493 C.ar    1  LIG1       0.1900000000000004
      9 C          -4.8571    1.3195   -1.9318 C.ar    1  LIG1       0.4500000000000002
     10 C          -2.9144    1.0171   -0.5802 C.ar    1  LIG1       0.5300000000000002
     11 N          -5.5644    1.2325   -3.1146 N.pl3   1  LIG1      -0.7800000000000002
     12 N          -5.4866    1.7739   -0.8361 N.ar    1  LIG1      -0.5499999999999998
     13 N          -3.5175    1.4530    0.5392 N.ar    1  LIG1        -0.54
     14 N          -2.6190    0.4557   -2.7935 N.ar    1  LIG1      -0.5800000000000001
     15 N          -1.6213    0.5997   -0.7643 N.ar    1  LIG1      -0.5199999999999996
     16 O           1.1449   -0.6760    2.6437 O.3     1  LIG1      -0.7599999999999998
     17 O           5.7254   -1.9787    1.2720 O.3     1  LIG1      -0.7400000000000002
     18 O           3.6088   -1.2336    2.5597 O.3     1  LIG1      -0.8000000000000007
     19 O           4.6762    0.3958    0.8479 O.2     1  LIG1      -0.7799999999999994
     20 O           3.4871   -1.7600    0.0082 O.3     1  LIG1      -0.6500000000000004
     21 O           0.6608    0.5772   -0.4402 O.3     1  LIG1      -0.5600000000000005
     22 P           4.5207   -1.0577    1.3015 P.3     1  LIG1           1.0
     23 H          -1.1966   -1.0050    1.7679 H       1  LIG1       0.16000000000000003
     24 H          -0.8065   -1.6787    0.1572 H       1  LIG1       0.17000000000000004
     25 H           1.9945   -1.4693   -1.3542 H       1  LIG1          0.12
     26 H           3.1689   -0.1224   -1.2410 H       1  LIG1       0.10999999999999999
     27 H          -5.3316    2.1771    1.1799 H       1  LIG1       0.16000000000000003
     28 H          -0.5597   -0.0595   -2.4822 H       1  LIG1       0.20999999999999996
     29 H           1.3030   -2.1138    1.1624 H       1  LIG1          0.12
     30 H           2.2882    0.5744    0.8768 H       1  LIG1       0.15000000000000002
     31 H          -0.7079    1.2477    0.9836 H       1  LIG1       0.17000000000000004
     32 H          -6.3652    1.8488   -3.1662 H       1  LIG1          0.36
     33 H          -4.9870    1.2006   -3.9455 H       1  LIG1          0.37
     34 H           2.1887   -0.8237    2.7317 H       1  LIG1       0.43000000000000005
@<TRIPOS>BOND
     1    33    11    1
     2    32    11    1
     3    11     9    1
     4    14     4   ar
     5    14     8   ar
     6    28     4    1
     7     4    15   ar
     8     9     8   ar
     9     9    12   ar
    10     8    10   ar
    11    25     2    1
    12    26     2    1
    13    12     3   ar
    14    15    10   ar
    15    15     7    1
    16     2    20    1
    17     2     6    1
    18    10    13   ar
    19    21     7    1
    20    21     6    1
    21    20    22    1
    22    24     1    1
    23     7     1    1
    24     7    31    1
    25     3    13   ar
    26     3    27    1
    27     6    30    1
    28     6     5    1
    29    19    22    2
    30     1     5    1
    31     1    23    1
    32    29     5    1
    33    17    22    1
    34    22    18    1
    35     5    16    1
    36    16    34    1
