@<TRIPOS>MOLECULE
KHWHQPFTGLTZEN-NWJCXACMSA-L	6044761	-1066.9537083344283
 15 14 0 0 0
SMALL
MULLIKEN NwChem

@<TRIPOS>ATOM
      1 C           0.2461   -0.7048    1.0349 C.2     1  LIG1      -0.21999999999999975
      2 C          -0.4980   -1.3384    1.9691 C.2     1  LIG1       -0.20999999999999996
      3 C          -0.2737    0.1737   -0.0546 C.2     1  LIG1       0.41999999999999993
      4 C          -1.9944   -1.4412    2.3034 C.2     1  LIG1       0.4800000000000004
      5 C           0.6882    0.7766   -0.9843 C.3     1  LIG1       -0.3099999999999996
      6 C           2.0918    0.7310   -1.1323 C.2     1  LIG1       0.5599999999999996
      7 CL         -0.0847    1.8207   -2.2406 Cl      1  LIG1      -0.17999999999999972
      8 O          -1.4932    0.3843   -0.1615 O.2     1  LIG1      -0.6500000000000004
      9 O          -2.3995   -0.6257    3.1703 O.co2   1  LIG1      -0.6600000000000001
     10 O          -2.5865   -2.4262    1.7938 O.co2   1  LIG1      -0.6699999999999999
     11 O           2.8153    1.2969   -1.9782 O.2     1  LIG1      -0.6300000000000008
     12 O           2.7946   -0.0641   -0.1995 O.3     1  LIG1      -0.6500000000000004
     13 H           1.3207   -0.8394    1.0720 H       1  LIG1       0.15000000000000002
     14 H           0.0904   -1.9347    2.6800 H       1  LIG1       0.15000000000000002
     15 H           3.7003    0.0824   -0.5237 H       1  LIG1       0.42000000000000004
@<TRIPOS>BOND
     1     7     5    1
     2    11     6    2
     3     6     5    1
     4     6    12    1
     5     5     3    1
     6    15    12    1
     7     8     3    2
     8     3     1    1
     9     1    13    1
    10     1     2    2
    11    10     4   ar
    12     2     4    1
    13     2    14    1
    14     4     9   ar
