@<TRIPOS>MOLECULE
KIDHWZJUCRJVML-UHFFFAOYSA-P	6044762	-269.9279817212356
 20 19 0 0 0
SMALL
MULLIKEN NwChem

@<TRIPOS>ATOM
      1 C           0.0207   -0.4465    0.9360 C.3     1  LIG1      -0.29000000000000004
      2 C          -0.6301    0.8004    0.2893 C.3     1  LIG1      -0.29000000000000004
      3 C           0.0692   -1.6728    0.0167 C.3     1  LIG1      -0.17999999999999972
      4 C           0.2489    1.4906   -0.7607 C.3     1  LIG1      -0.17999999999999972
      5 N           0.5514   -2.9013    0.7852 N.4     1  LIG1         -0.71
      6 N          -0.3936    2.7967   -1.2224 N.4     1  LIG1         -0.71
      7 H          -0.5773   -0.6886    1.8229 H       1  LIG1       0.18999999999999995
      8 H           1.0295   -0.1987    1.2910 H       1  LIG1       0.18999999999999995
      9 H          -1.6003    0.5296   -0.1469 H       1  LIG1       0.18999999999999995
     10 H          -0.8341    1.5067    1.1032 H       1  LIG1       0.18999999999999995
     11 H          -0.9186   -1.9330   -0.3730 H       1  LIG1       0.22999999999999998
     12 H           0.7607   -1.5585   -0.8220 H       1  LIG1       0.22999999999999998
     13 H           1.2285    1.7643   -0.3598 H       1  LIG1       0.21999999999999997
     14 H           0.3922    0.8951   -1.6660 H       1  LIG1       0.22999999999999998
     15 H          -0.0726   -3.1288    1.5724 H       1  LIG1      0.44999999999999996
     16 H           0.5897   -3.7349    0.1811 H       1  LIG1      0.44999999999999996
     17 H           1.4945   -2.7681    1.1762 H       1  LIG1      0.44999999999999996
     18 H          -0.5330    3.4516   -0.4398 H       1  LIG1      0.44999999999999996
     19 H           0.1907    3.2808   -1.9194 H       1  LIG1      0.45999999999999996
     20 H          -1.3151    2.6424   -1.6552 H       1  LIG1      0.44999999999999996
@<TRIPOS>BOND
     1    19     6    1
     2    14     4    1
     3    20     6    1
     4     6     4    1
     5     6    18    1
     6    12     3    1
     7     4    13    1
     8     4     2    1
     9    11     3    1
    10     9     2    1
    11     3     5    1
    12     3     1    1
    13    16     5    1
    14     2     1    1
    15     2    10    1
    16     5    17    1
    17     5    15    1
    18     1     8    1
    19     1     7    1
