@<TRIPOS>MOLECULE
KJTLQQUUPVSXIM-ZCFIWIBFSA-M	6044766	-536.1712938562414
 21 20 0 0 0
SMALL
MULLIKEN NwChem

@<TRIPOS>ATOM
      1 C           1.5302    0.0972   -1.0006 C.3     1  LIG1      -0.46999999999999975
      2 C           1.0081    1.1177    1.2733 C.3     1  LIG1      -0.2999999999999998
      3 C           0.5546    2.5201    0.8569 C.3     1  LIG1       -0.04999999999999982
      4 C          -0.7825   -0.2053   -0.0238 C.3     1  LIG1       -0.4400000000000004
      5 C          -1.1718   -1.5200   -0.7997 C.2     1  LIG1       0.5599999999999996
      6 C           0.7222   -0.0510    0.3055 C.3     1  LIG1       0.33999999999999986
      7 O          -0.8394    2.7646    1.0480 O.3     1  LIG1      -0.6799999999999997
      8 O          -0.3896   -2.5126   -0.6299 O.co2   1  LIG1      -0.6699999999999999
      9 O          -2.2136   -1.4649   -1.4749 O.co2   1  LIG1      -0.6500000000000004
     10 O           1.1734   -1.2122    0.9947 O.3     1  LIG1        -0.75
     11 H           1.2387    0.9815   -1.5831 H       1  LIG1       0.15000000000000002
     12 H           1.3595   -0.7926   -1.6134 H       1  LIG1          0.14
     13 H           2.6006    0.1638   -0.7698 H       1  LIG1          0.14
     14 H           0.5405    0.8784    2.2369 H       1  LIG1          0.13
     15 H           2.0944    1.1320    1.4473 H       1  LIG1          0.14
     16 H           1.0604    3.2691    1.4797 H       1  LIG1       0.15000000000000002
     17 H           0.8479    2.7257   -0.1869 H       1  LIG1          0.14
     18 H          -1.3480   -0.2080    0.9201 H       1  LIG1       0.16000000000000003
     19 H          -1.1462    0.6310   -0.6378 H       1  LIG1          0.14
     20 H          -1.3078    2.0375    0.6088 H       1  LIG1       0.42000000000000004
     21 H           0.7108   -1.9435    0.4804 H       1  LIG1            0.4
@<TRIPOS>BOND
     1    12     1    1
     2    11     1    1
     3     9     5   ar
     4     1    13    1
     5     1     6    1
     6     5     8   ar
     7     5     4    1
     8    19     4    1
     9    17     3    1
    10     4     6    1
    11     4    18    1
    12     6    10    1
    13     6     2    1
    14    21    10    1
    15    20     7    1
    16     3     7    1
    17     3     2    1
    18     3    16    1
    19     2    15    1
    20     2    14    1
