@<TRIPOS>MOLECULE
KKADPXVIOXHVKN-UHFFFAOYSA-M	6044767	-648.087254779788
 20 20 0 0 0
SMALL
MULLIKEN NwChem

@<TRIPOS>ATOM
      1 C          -1.7722    0.0531    0.0171 C.2     1  LIG1      -0.17999999999999972
      2 C           0.0694   -1.0324   -1.1194 C.2     1  LIG1      -0.17999999999999972
      3 C          -2.3588   -1.1683    0.2614 C.2     1  LIG1      -0.2599999999999998
      4 C          -0.5005   -2.2644   -0.8829 C.2     1  LIG1      -0.2699999999999996
      5 C           0.0449    1.5303   -0.9861 C.3     1  LIG1       -0.40000000000000036
      6 C          -0.5613    0.1669   -0.7091 C.3     1  LIG1       0.040000000000000036
      7 C          -1.7682   -2.4227   -0.1849 C.2     1  LIG1       0.40000000000000036
      8 C           0.6626    1.8117    0.3449 C.2     1  LIG1       0.3799999999999999
      9 C           2.0179    1.1575    0.6430 C.2     1  LIG1       0.5700000000000003
     10 O          -2.3036   -3.5419    0.0216 O.2     1  LIG1      -0.7400000000000002
     11 O           0.1395    2.4613    1.2645 O.2     1  LIG1      -0.5399999999999991
     12 O           2.3556    1.3213    1.9396 O.3     1  LIG1      -0.5999999999999996
     13 O           2.7515    0.6420   -0.1743 O.2     1  LIG1      -0.5099999999999998
     14 H          -2.2439    0.9663    0.3817 H       1  LIG1          0.13
     15 H           1.0278   -0.9645   -1.6322 H       1  LIG1          0.13
     16 H          -3.3001   -1.2380    0.8037 H       1  LIG1       0.09999999999999998
     17 H          -0.0126   -3.1773   -1.2198 H       1  LIG1       0.09999999999999998
     18 H           0.8017    1.4788   -1.7735 H       1  LIG1       0.18999999999999995
     19 H          -0.7007    2.2958   -1.2266 H       1  LIG1       0.18000000000000005
     20 H           1.5805    1.8094    2.3107 H       1  LIG1       0.44999999999999996
@<TRIPOS>BOND
     1    18     5    1
     2    15     2    1
     3    19     5    1
     4    17     4    1
     5     2     4    2
     6     2     6    1
     7     5     6    1
     8     5     8    1
     9     4     7    1
    10     6     1    1
    11     7    10    2
    12     7     3    1
    13    13     9    2
    14     1     3    2
    15     1    14    1
    16     3    16    1
    17     8     9    1
    18     8    11    2
    19     9    12    1
    20    12    20    1
