@<TRIPOS>MOLECULE
KLJFYXOVGVXZKT-CCEZHUSRSA-N	6044768	-702.6323876917082
 47 46 0 0 0
SMALL
MULLIKEN NwChem

@<TRIPOS>ATOM
      1 C           3.5762   -3.2294   -5.5062 C.3     1  LIG1      -0.45999999999999996
      2 C           3.6296   -3.3971   -3.9835 C.3     1  LIG1      -0.2599999999999998
      3 C           3.9571   -2.1005   -3.2238 C.3     1  LIG1      -0.2599999999999998
      4 C           2.9670   -0.9426   -3.4428 C.3     1  LIG1      -0.2699999999999996
      5 C           1.5007   -1.2653   -3.1055 C.3     1  LIG1      -0.2699999999999996
      6 C           1.2563   -1.7653   -1.6708 C.3     1  LIG1      -0.2699999999999996
      7 C           1.7406   -0.8181   -0.5590 C.3     1  LIG1      -0.2699999999999996
      8 C           1.1461    0.6003   -0.6051 C.3     1  LIG1      -0.2699999999999996
      9 C          -0.3906    0.6664   -0.5622 C.3     1  LIG1      -0.2699999999999996
     10 C          -1.0391   -0.0126    0.6570 C.3     1  LIG1      -0.2699999999999996
     11 C          -0.5587    0.5067    2.0237 C.3     1  LIG1      -0.2699999999999996
     12 C          -0.7236    2.0203    2.2432 C.3     1  LIG1      -0.2699999999999996
     13 C          -2.1631    2.5607    2.0636 C.3     1  LIG1      -0.33000000000000007
     14 C          -3.1577    1.8998    2.9681 C.2     1  LIG1      -0.07000000000000028
     15 C          -3.7952    2.4890    3.9922 C.2     1  LIG1      -0.17999999999999972
     16 C          -4.7392    1.7463    4.8384 C.2     1  LIG1       0.23000000000000043
     17 O          -5.3427    2.2248    5.7812 O.2     1  LIG1      -0.4900000000000002
     18 H           2.7631   -2.5609   -5.8113 H       1  LIG1       0.15000000000000002
     19 H           3.4165   -4.1917   -6.0056 H       1  LIG1          0.14
     20 H           4.5136   -2.8055   -5.8883 H       1  LIG1          0.14
     21 H           2.6734   -3.8040   -3.6280 H       1  LIG1          0.14
     22 H           4.3888   -4.1493   -3.7300 H       1  LIG1          0.13
     23 H           4.0208   -2.3264   -2.1509 H       1  LIG1          0.14
     24 H           4.9596   -1.7605   -3.5206 H       1  LIG1          0.13
     25 H           3.2995   -0.0844   -2.8437 H       1  LIG1          0.14
     26 H           3.0183   -0.6102   -4.4879 H       1  LIG1          0.13
     27 H           0.8958   -0.3669   -3.2873 H       1  LIG1          0.14
     28 H           1.1233   -2.0220   -3.8061 H       1  LIG1          0.13
     29 H           0.1819   -1.9564   -1.5466 H       1  LIG1          0.13
     30 H           1.7471   -2.7381   -1.5355 H       1  LIG1          0.13
     31 H           1.5155   -1.2777    0.4128 H       1  LIG1          0.14
     32 H           2.8347   -0.7363   -0.6007 H       1  LIG1          0.14
     33 H           1.5611    1.1791    0.2311 H       1  LIG1          0.14
     34 H           1.4891    1.1097   -1.5151 H       1  LIG1          0.14
     35 H          -0.6942    1.7214   -0.5987 H       1  LIG1          0.14
     36 H          -0.8006    0.2097   -1.4723 H       1  LIG1          0.14
     37 H          -2.1293    0.1033    0.5817 H       1  LIG1          0.14
     38 H          -0.8553   -1.0938    0.6139 H       1  LIG1          0.14
     39 H          -1.0915   -0.0372    2.8149 H       1  LIG1          0.14
     40 H           0.5017    0.2568    2.1562 H       1  LIG1          0.14
     41 H          -0.3821    2.2709    3.2555 H       1  LIG1          0.14
     42 H          -0.0708    2.5674    1.5514 H       1  LIG1       0.15000000000000002
     43 H          -2.1630    3.6429    2.2394 H       1  LIG1       0.16000000000000003
     44 H          -2.4745    2.4079    1.0206 H       1  LIG1       0.18000000000000005
     45 H          -3.3588    0.8437    2.7769 H       1  LIG1       0.18000000000000005
     46 H          -3.6414    3.5380    4.2394 H       1  LIG1       0.16000000000000003
     47 H          -4.8751    0.6759    4.5556 H       1  LIG1           0.13
@<TRIPOS>BOND
     1    19     1    1
     2    20     1    1
     3    18     1    1
     4     1     2    1
     5    26     4    1
     6     2    22    1
     7     2    21    1
     8     2     3    1
     9    28     5    1
    10    24     3    1
    11     4     3    1
    12     4     5    1
    13     4    25    1
    14    27     5    1
    15     3    23    1
    16     5     6    1
    17     6    29    1
    18     6    30    1
    19     6     7    1
    20    34     8    1
    21    36     9    1
    22     8     9    1
    23     8     7    1
    24     8    33    1
    25    32     7    1
    26    35     9    1
    27     9    10    1
    28     7    31    1
    29    37    10    1
    30    38    10    1
    31    10    11    1
    32    44    13    1
    33    42    12    1
    34    11    40    1
    35    11    12    1
    36    11    39    1
    37    13    43    1
    38    13    12    1
    39    13    14    1
    40    12    41    1
    41    45    14    1
    42    14    15    2
    43    15    46    1
    44    15    16    1
    45    47    16    1
    46    16    17    2
