@<TRIPOS>MOLECULE
KLZWTHGLLDRKHD-PMIIOQGLSA-N	6044769	-1208.6033189048496
 78 81 0 0 0
SMALL
MULLIKEN NwChem

@<TRIPOS>ATOM
      1 C          -6.2855   -2.9898   -0.4547 C.3     1  LIG1      -0.5300000000000002
      2 C          -7.7846   -1.8143    1.2246 C.3     1  LIG1      -0.5199999999999996
      3 C          -2.6795   -1.5952    3.7471 C.3     1  LIG1      -0.4800000000000004
      4 C           4.0263    2.9856   -3.8877 C.3     1  LIG1      -0.4800000000000004
      5 C           1.6823    0.7464   -3.2237 C.3     1  LIG1      -0.4800000000000004
      6 C           0.1457   -1.4883    2.2390 C.3     1  LIG1      -0.4900000000000002
      7 C           1.0791    1.1332    2.5754 C.3     1  LIG1      -0.4800000000000004
      8 C          -4.2746   -3.4625    1.8533 C.3     1  LIG1      -0.3200000000000003
      9 C          -5.6133   -2.7734    1.9643 C.2     1  LIG1      -0.20000000000000018
     10 C          -3.1310   -2.5201    1.4097 C.3     1  LIG1      -0.2699999999999996
     11 C           2.2661    3.1209   -1.2713 C.3     1  LIG1      -0.29000000000000004
     12 C           1.4740    2.7648   -0.0087 C.3     1  LIG1      -0.34999999999999964
     13 C          -2.0425    1.1751    2.2723 C.3     1  LIG1      -0.29000000000000004
     14 C           1.0143   -1.0516   -0.7032 C.3     1  LIG1      -0.34999999999999964
     15 C           4.7187   -0.0764   -3.0129 C.3     1  LIG1      -0.29000000000000004
     16 C           3.5849   -0.4318   -2.0351 C.3     1  LIG1      -0.3099999999999996
     17 C          -1.0104    1.9472    1.4547 C.3     1  LIG1      -0.29000000000000004
     18 C          -0.4081   -1.0725   -0.1549 C.3     1  LIG1      -0.29000000000000004
     19 C          -6.4913   -2.5505    0.9748 C.2     1  LIG1      0.17999999999999972
     20 C          -2.9605   -1.2523    2.2714 C.3     1  LIG1      -0.05999999999999961
     21 C           4.4220    2.4092   -2.5192 C.3     1  LIG1      -0.08999999999999986
     22 C          -2.0316   -0.2037    1.5990 C.3     1  LIG1      -0.11000000000000032
     23 C           3.2637    2.0051   -1.5742 C.3     1  LIG1      -0.1200000000000001
     24 C           1.5313    0.3699   -0.7692 C.2     1  LIG1      0.07000000000000028
     25 C           1.0739    1.2981    0.0960 C.2     1  LIG1      0.08000000000000007
     26 C           5.4240    1.2381   -2.6464 C.3     1  LIG1       0.1299999999999999
     27 C           2.5110    0.6869   -1.9141 C.3     1  LIG1      0.05999999999999961
     28 C          -0.5108   -0.4880    1.2676 C.3     1  LIG1      0.09999999999999964
     29 C           0.1898    0.9614    1.3128 C.3     1  LIG1      0.019999999999999574
     30 O           6.2062    1.0900   -1.4559 O.3     1  LIG1      -0.6899999999999995
     31 H          -7.1047   -3.6451   -0.7845 H       1  LIG1       0.16000000000000003
     32 H          -5.3429   -3.5188   -0.6132 H       1  LIG1       0.16000000000000003
     33 H          -6.2945   -2.1217   -1.1288 H       1  LIG1       0.16000000000000003
     34 H          -7.8978   -1.5280    2.2755 H       1  LIG1       0.16000000000000003
     35 H          -7.8412   -0.9018    0.6141 H       1  LIG1       0.16000000000000003
     36 H          -8.6502   -2.4304    0.9420 H       1  LIG1       0.16000000000000003
     37 H          -1.8717   -2.3233    3.8609 H       1  LIG1       0.15000000000000002
     38 H          -2.4174   -0.7056    4.3294 H       1  LIG1       0.15000000000000002
     39 H          -3.5730   -2.0276    4.2115 H       1  LIG1       0.15000000000000002
     40 H           3.2657    3.7666   -3.7855 H       1  LIG1       0.15000000000000002
     41 H           4.9021    3.4388   -4.3676 H       1  LIG1       0.15000000000000002
     42 H           3.6348    2.2314   -4.5745 H       1  LIG1       0.16000000000000003
     43 H           1.0126    1.6105   -3.2360 H       1  LIG1       0.15000000000000002
     44 H           2.3058    0.7901   -4.1191 H       1  LIG1       0.16000000000000003
     45 H           1.0566   -0.1479   -3.3154 H       1  LIG1       0.15000000000000002
     46 H          -0.3081   -2.4773    2.1306 H       1  LIG1       0.15000000000000002
     47 H           1.2150   -1.6027    2.0366 H       1  LIG1       0.15000000000000002
     48 H           0.0418   -1.1916    3.2842 H       1  LIG1       0.15000000000000002
     49 H           0.5176    0.9548    3.4974 H       1  LIG1       0.15000000000000002
     50 H           1.9371    0.4563    2.5649 H       1  LIG1       0.15000000000000002
     51 H           1.4662    2.1542    2.6342 H       1  LIG1       0.15000000000000002
     52 H          -4.0234   -3.9139    2.8209 H       1  LIG1          0.14
     53 H          -4.3253   -4.2935    1.1389 H       1  LIG1          0.14
     54 H          -5.8615   -2.3848    2.9524 H       1  LIG1          0.13
     55 H          -2.1967   -3.0958    1.3931 H       1  LIG1          0.14
     56 H          -3.3281   -2.2130    0.3739 H       1  LIG1          0.13
     57 H           2.7880    4.0758   -1.1265 H       1  LIG1          0.13
     58 H           1.5853    3.2689   -2.1173 H       1  LIG1          0.14
     59 H           2.0782    3.0374    0.8682 H       1  LIG1       0.15000000000000002
     60 H           0.5783    3.3945    0.0512 H       1  LIG1       0.15000000000000002
     61 H          -1.7312    1.1159    3.3223 H       1  LIG1          0.14
     62 H          -3.0385    1.6340    2.2570 H       1  LIG1          0.13
     63 H           1.0106   -1.4989   -1.7036 H       1  LIG1       0.15000000000000002
     64 H           1.6818   -1.6902   -0.1074 H       1  LIG1       0.15000000000000002
     65 H           5.4640   -0.8793   -3.0238 H       1  LIG1          0.14
     66 H           4.3227   -0.0007   -4.0333 H       1  LIG1       0.15000000000000002
     67 H           4.0103   -0.6206   -1.0377 H       1  LIG1          0.14
     68 H           3.1274   -1.3766   -2.3464 H       1  LIG1          0.14
     69 H          -1.4281    2.1763    0.4655 H       1  LIG1          0.13
     70 H          -0.7176    2.8977    1.9136 H       1  LIG1          0.13
     71 H          -1.0310   -0.4805   -0.8384 H       1  LIG1          0.13
     72 H          -0.8105   -2.0926   -0.1643 H       1  LIG1          0.13
     73 H          -3.9414   -0.7530    2.2615 H       1  LIG1          0.12
     74 H           4.9671    3.2056   -1.9929 H       1  LIG1          0.12
     75 H          -2.5035   -0.0358    0.6188 H       1  LIG1          0.12
     76 H           3.7575    1.7928   -0.6094 H       1  LIG1          0.12
     77 H           6.1637    1.4796   -3.4180 H       1  LIG1          0.13
     78 H           5.6072    0.8460   -0.7339 H       1  LIG1       0.42000000000000004
@<TRIPOS>BOND
     1    42     4    1
     2    41     4    1
     3    44     5    1
     4    66    15    1
     5     4    40    1
     6     4    21    1
     7    77    26    1
     8    45     5    1
     9    43     5    1
    10     5    27    1
    11    65    15    1
    12    15    26    1
    13    15    16    1
    14    26    21    1
    15    26    30    1
    16    21    74    1
    17    21    23    1
    18    68    16    1
    19    58    11    1
    20    16    27    1
    21    16    67    1
    22    27    23    1
    23    27    24    1
    24    63    14    1
    25    23    11    1
    26    23    76    1
    27    30    78    1
    28    11    57    1
    29    11    12    1
    30    33     1    1
    31    71    18    1
    32    31     1    1
    33    24    14    1
    34    24    25    2
    35    14    18    1
    36    14    64    1
    37    32     1    1
    38     1    19    1
    39    72    18    1
    40    18    28    1
    41    12    60    1
    42    12    25    1
    43    12    59    1
    44    25    29    1
    45    56    10    1
    46    69    17    1
    47    35     2    1
    48    75    22    1
    49    36     2    1
    50    19     2    1
    51    19     9    2
    52    53     8    1
    53     2    34    1
    54    28    29    1
    55    28    22    1
    56    28     6    1
    57    29    17    1
    58    29     7    1
    59    55    10    1
    60    10     8    1
    61    10    20    1
    62    17    70    1
    63    17    13    1
    64    22    20    1
    65    22    13    1
    66     8     9    1
    67     8    52    1
    68     9    54    1
    69    47     6    1
    70    46     6    1
    71     6    48    1
    72    62    13    1
    73    73    20    1
    74    20     3    1
    75    13    61    1
    76    50     7    1
    77     7    51    1
    78     7    49    1
    79     3    37    1
    80     3    39    1
    81     3    38    1
