@<TRIPOS>MOLECULE
KMYWVDDIPVNLME-KQYNXXCUSA-M	6044770	-1454.205710140454
 33 36 0 0 0
SMALL
MULLIKEN NwChem

@<TRIPOS>ATOM
      1 C           0.5229    2.0493    2.3892 C.3     1  LIG1       -0.04999999999999982
      2 C          -1.2528    2.8122   -2.0417 C.ar    1  LIG1       0.16999999999999993
      3 C          -1.8579   -1.4569   -1.4577 C.ar    1  LIG1       0.21999999999999975
      4 C           0.6227    0.5560    2.1038 C.3     1  LIG1       0.11000000000000032
      5 C          -2.2024    0.3628   -2.4841 C.ar    1  LIG1       0.1900000000000004
      6 C           1.8488    0.1642    1.2460 C.3     1  LIG1       0.08000000000000007
      7 C           1.2549   -0.6312    0.0341 C.3     1  LIG1       0.05999999999999961
      8 C          -2.5606    1.4255   -3.3335 C.ar    1  LIG1       0.46999999999999975
      9 C          -1.3408    0.6782   -1.4229 C.ar    1  LIG1       0.5599999999999996
     10 C          -0.2548   -0.7573    0.3786 C.3     1  LIG1       0.2599999999999998
     11 N          -3.4247    1.2497   -4.3786 N.pl3   1  LIG1      -0.7800000000000002
     12 N          -2.0660    2.6535   -3.1008 N.ar    1  LIG1        -0.54
     13 N          -0.8414    1.8987   -1.1597 N.ar    1  LIG1      -0.5599999999999996
     14 N          -2.5162   -0.9845   -2.4946 N.ar    1  LIG1      -0.5800000000000001
     15 N          -1.1315   -0.5133   -0.7666 N.ar    1  LIG1      -0.5099999999999998
     16 O           0.6308    2.8392    1.2194 O.3     1  LIG1      -0.7100000000000009
     17 O           3.6094   -3.1283    1.5055 O.2     1  LIG1      -0.6400000000000006
     18 O           1.1173   -2.6482    2.2982 O.3     1  LIG1      -0.6999999999999993
     19 O          -0.5605    0.2175    1.3446 O.3     1  LIG1      -0.5299999999999994
     20 O           2.7628   -0.6849    1.9037 O.3     1  LIG1      -0.6099999999999994
     21 O           1.9029   -1.8710   -0.0414 O.3     1  LIG1      -0.6099999999999994
     22 P           2.3755   -2.2988    1.5494 P.3     1  LIG1       1.1099999999999994
     23 H           1.3469    2.3394    3.0533 H       1  LIG1       0.16000000000000003
     24 H          -0.4240    2.2421    2.9240 H       1  LIG1          0.14
     25 H          -0.8778    3.8211   -1.8840 H       1  LIG1       0.17000000000000004
     26 H          -1.8492   -2.4911   -1.1388 H       1  LIG1       0.21999999999999997
     27 H           0.6414   -0.0360    3.0257 H       1  LIG1       0.16000000000000003
     28 H           2.3782    1.0612    0.9142 H       1  LIG1       0.18000000000000005
     29 H           1.3818   -0.0957   -0.9129 H       1  LIG1       0.18999999999999995
     30 H          -0.4458   -1.7727    0.7413 H       1  LIG1       0.18999999999999995
     31 H          -3.5727    0.2995   -4.6888 H       1  LIG1          0.38
     32 H          -3.4219    1.9718   -5.0853 H       1  LIG1          0.37
     33 H           0.0474    2.4478    0.5332 H       1  LIG1       0.43999999999999995
@<TRIPOS>BOND
     1    32    11    1
     2    31    11    1
     3    11     8    1
     4     8    12   ar
     5     8     5   ar
     6    12     2   ar
     7    14     5   ar
     8    14     3   ar
     9     5     9   ar
    10     2    25    1
    11     2    13   ar
    12     3    26    1
    13     3    15   ar
    14     9    13   ar
    15     9    15   ar
    16    29     7    1
    17    15    10    1
    18    21     7    1
    19    21    22    1
    20     7    10    1
    21     7     6    1
    22    10    30    1
    23    10    19    1
    24    33    16    1
    25    28     6    1
    26    16     1    1
    27     6    20    1
    28     6     4    1
    29    19     4    1
    30    17    22    2
    31    22    20    1
    32    22    18    1
    33     4     1    1
    34     4    27    1
    35     1    24    1
    36     1    23    1
