@<TRIPOS>MOLECULE
KPGXRSRHYNQIFN-UHFFFAOYSA-L	6044772	-569.2946712755388
 14 13 0 0 0
SMALL
MULLIKEN NwChem

@<TRIPOS>ATOM
      1 C           0.1890    0.5464    0.2335 C.3     1  LIG1       -0.3600000000000003
      2 C          -0.0327    0.6566   -1.2761 C.3     1  LIG1       -0.34999999999999964
      3 C          -0.3799   -0.6986    0.9157 C.2     1  LIG1       0.3799999999999999
      4 C           0.8872    1.6980   -2.0135 C.2     1  LIG1       0.5099999999999998
      5 C          -0.4715   -0.6556    2.4672 C.2     1  LIG1       0.45999999999999996
      6 O          -0.7694   -1.6733    0.2716 O.2     1  LIG1      -0.5500000000000007
      7 O           0.3808    2.2406   -3.0346 O.co2   1  LIG1      -0.6899999999999995
      8 O           2.0473    1.8531   -1.5415 O.co2   1  LIG1      -0.6799999999999997
      9 O          -1.3169    0.1821    2.8860 O.co2   1  LIG1      -0.6500000000000004
     10 O           0.2743   -1.4385    3.1057 O.co2   1  LIG1      -0.6600000000000001
     11 H          -0.2046    1.4180    0.7721 H       1  LIG1       0.16000000000000003
     12 H           1.2759    0.5636    0.4118 H       1  LIG1       0.16000000000000003
     13 H           0.1572   -0.3333   -1.7190 H       1  LIG1          0.14
     14 H          -1.0822    0.8864   -1.5034 H       1  LIG1           0.12
@<TRIPOS>BOND
     1     7     4   ar
     2     4     8   ar
     3     4     2    1
     4    13     2    1
     5    14     2    1
     6     2     1    1
     7     1    12    1
     8     1    11    1
     9     1     3    1
    10     6     3    2
    11     3     5    1
    12     5     9   ar
    13     5    10   ar
