@<TRIPOS>MOLECULE
KQNPFQTWMSNSAP-UHFFFAOYSA-M	6044774	-307.16281074216
 13 12 0 0 0
SMALL
MULLIKEN NwChem

@<TRIPOS>ATOM
      1 C           1.3822   -0.0167    1.7212 C.3     1  LIG1      -0.4500000000000002
      2 C           1.1636   -0.9324    0.5118 C.3     1  LIG1      -0.21999999999999975
      3 C           0.6470   -0.1675   -0.7114 C.3     1  LIG1       -0.3600000000000003
      4 C          -0.8155    0.4125   -0.5685 C.2     1  LIG1       0.5300000000000002
      5 O          -1.1644    1.1721   -1.5035 O.co2   1  LIG1      -0.6899999999999995
      6 O          -1.4647    0.0363    0.4451 O.co2   1  LIG1      -0.6699999999999999
      7 H           1.7338   -0.5713    2.6042 H       1  LIG1          0.13
      8 H           0.4289    0.4641    1.9579 H       1  LIG1          0.14
      9 H           2.1255    0.7634    1.4986 H       1  LIG1          0.13
     10 H           0.4094   -1.6822    0.7793 H       1  LIG1       0.10999999999999999
     11 H           2.0999   -1.4672    0.2744 H       1  LIG1       0.10999999999999999
     12 H           0.6492   -0.8247   -1.5953 H       1  LIG1          0.13
     13 H           1.3216    0.6658   -0.9615 H       1  LIG1           0.12
@<TRIPOS>BOND
     1    12     3    1
     2     5     4   ar
     3    13     3    1
     4     3     4    1
     5     3     2    1
     6     4     6   ar
     7    11     2    1
     8     2    10    1
     9     2     1    1
    10     9     1    1
    11     1     8    1
    12     1     7    1
