@<TRIPOS>MOLECULE
KQROHCSYOGBQGJ-UHFFFAOYSA-N	6044775	-592.7343961517975
 24 25 0 0 0
SMALL
MULLIKEN NwChem

@<TRIPOS>ATOM
      1 C           2.5947    1.3219   -0.0660 C.ar    1  LIG1      -0.2400000000000002
      2 C           1.4668    2.1092   -0.2722 C.ar    1  LIG1      -0.1900000000000004
      3 C          -1.8851   -1.6478   -0.4115 C.3     1  LIG1      -0.34999999999999964
      4 C          -2.1243   -2.0857    1.0463 C.3     1  LIG1       -0.040000000000000036
      5 C           1.2712   -0.7284   -0.1018 C.ar    1  LIG1      -0.29000000000000004
      6 C          -1.9338    0.9155   -0.6466 C.ar    1  LIG1       -0.019999999999999574
      7 C          -1.2721   -0.2805   -0.4862 C.ar    1  LIG1      0.009999999999999787
      8 C           2.4974   -0.0849    0.0186 C.ar    1  LIG1       0.33000000000000007
      9 C           0.1214    0.0484   -0.3127 C.ar    1  LIG1       0.07000000000000028
     10 C           0.2355    1.4631   -0.3934 C.ar    1  LIG1       0.29000000000000004
     11 N          -1.0378    1.9663   -0.5939 N.ar    1  LIG1      -0.6799999999999997
     12 O          -3.0168   -1.2127    1.7218 O.3     1  LIG1      -0.6699999999999999
     13 O           3.6060   -0.8717    0.2234 O.3     1  LIG1      -0.6899999999999995
     14 H           3.5698    1.7954    0.0319 H       1  LIG1       0.16000000000000003
     15 H           1.5505    3.1907   -0.3347 H       1  LIG1       0.16000000000000003
     16 H          -2.8484   -1.6589   -0.9350 H       1  LIG1       0.15000000000000002
     17 H          -1.2357   -2.3827   -0.9065 H       1  LIG1       0.15000000000000002
     18 H          -2.5912   -3.0761    1.0705 H       1  LIG1       0.15000000000000002
     19 H          -1.1575   -2.1559    1.5720 H       1  LIG1          0.14
     20 H           1.2272   -1.8103   -0.0305 H       1  LIG1       0.15000000000000002
     21 H          -2.9872    1.0952   -0.8153 H       1  LIG1       0.18000000000000005
     22 H          -1.2694    2.9381   -0.7239 H       1  LIG1          0.37
     23 H          -2.6357   -0.3217    1.6432 H       1  LIG1       0.41000000000000003
     24 H           4.3861   -0.3020    0.2990 H       1  LIG1       0.44999999999999996
@<TRIPOS>BOND
     1    16     3    1
     2    17     3    1
     3    21     6    1
     4    22    11    1
     5     6    11   ar
     6     6     7   ar
     7    11    10   ar
     8     7     3    1
     9     7     9   ar
    10     3     4    1
    11    10     9   ar
    12    10     2   ar
    13    15     2    1
    14     9     5   ar
    15     2     1   ar
    16     5    20    1
    17     5     8   ar
    18     1     8   ar
    19     1    14    1
    20     8    13    1
    21    13    24    1
    22     4    18    1
    23     4    19    1
    24     4    12    1
    25    23    12    1
