@<TRIPOS>MOLECULE
KRKNYBCHXYNGOX-UHFFFAOYSA-K	6044777	-758.5675188559788
 18 17 0 0 0
SMALL
MULLIKEN NwChem

@<TRIPOS>ATOM
      1 C           0.5436    0.6486   -0.9003 C.3     1  LIG1       -0.3600000000000003
      2 C           0.6889   -0.3403    1.4875 C.3     1  LIG1       -0.33999999999999986
      3 C           0.4873    0.4400   -2.4565 C.2     1  LIG1           0.5
      4 C           0.4703    0.9185    2.4097 C.2     1  LIG1       0.4900000000000002
      5 C          -1.4092   -0.8039    0.0796 C.2     1  LIG1       0.5099999999999998
      6 C           0.1498   -0.5219    0.0234 C.3     1  LIG1          0.25
      7 O          -0.5278   -0.1212   -2.9514 O.co2   1  LIG1      -0.6899999999999995
      8 O           1.4689    0.9295   -3.1068 O.co2   1  LIG1      -0.7100000000000009
      9 O           0.1294    0.6564    3.6063 O.co2   1  LIG1      -0.6999999999999993
     10 O           0.7661    2.0538    1.9453 O.co2   1  LIG1      -0.6799999999999997
     11 O          -1.7188   -2.0399   -0.0756 O.co2   1  LIG1      -0.6999999999999993
     12 O          -2.1895    0.1388    0.3311 O.co2   1  LIG1      -0.6699999999999999
     13 O           0.7694   -1.7503   -0.4416 O.3     1  LIG1        -0.75
     14 H          -0.1110    1.4856   -0.6259 H       1  LIG1          0.12
     15 H           1.5620    0.9704   -0.6466 H       1  LIG1       0.09999999999999998
     16 H           0.3593   -1.2264    2.0479 H       1  LIG1       0.09999999999999998
     17 H           1.7859   -0.4338    1.3845 H       1  LIG1          0.12
     18 H          -0.0593   -2.2935   -0.5086 H       1  LIG1           0.39
@<TRIPOS>BOND
     1     8     3   ar
     2     7     3   ar
     3     3     1    1
     4     1    15    1
     5     1    14    1
     6     1     6    1
     7    18    13    1
     8    13     6    1
     9    11     5   ar
    10     6     5    1
    11     6     2    1
    12     5    12   ar
    13    17     2    1
    14     2    16    1
    15     2     4    1
    16    10     4   ar
    17     4     9   ar
