@<TRIPOS>MOLECULE
KSEBMYQBYZTDHS-HWKANZROSA-M	6044779	-687.3658560956187
 23 23 0 0 0
SMALL
MULLIKEN NwChem

@<TRIPOS>ATOM
      1 C           1.0242   -3.9795   -0.1217 C.3     1  LIG1       -0.23000000000000043
      2 C           0.7371    0.8318   -1.4601 C.2     1  LIG1      -0.20999999999999996
      3 C          -0.3903    1.7128    0.5432 C.2     1  LIG1      -0.20000000000000018
      4 C           1.1777   -0.1990   -2.2553 C.2     1  LIG1      -0.2599999999999998
      5 C          -1.0725    1.7176    1.7367 C.2     1  LIG1       -0.2599999999999998
      6 C          -0.1729   -0.7588    0.1237 C.2     1  LIG1      -0.28000000000000025
      7 C           0.0400    0.6053   -0.2405 C.3     1  LIG1       0.1299999999999999
      8 C           0.9570   -1.5943   -1.9306 C.2     1  LIG1       0.3799999999999999
      9 C           0.2511   -1.8015   -0.6592 C.2     1  LIG1          0.25
     10 C          -1.4567    2.9061    2.4481 C.2     1  LIG1       0.5700000000000003
     11 O           1.3325   -2.5396   -2.6708 O.2     1  LIG1      -0.6899999999999995
     12 O          -2.0670    2.9554    3.5164 O.2     1  LIG1      -0.5899999999999999
     13 O          -1.0845    4.0970    1.8383 O.3     1  LIG1      -0.6300000000000008
     14 O          -0.0767   -3.0855   -0.2472 O.2     1  LIG1      -0.5500000000000007
     15 H           0.6049   -4.9396    0.2013 H       1  LIG1       0.16000000000000003
     16 H           1.7321   -3.6274    0.6472 H       1  LIG1          0.14
     17 H           1.5468   -4.0928   -1.0751 H       1  LIG1       0.17000000000000004
     18 H           0.9200    1.8634   -1.7644 H       1  LIG1          0.14
     19 H          -0.1398    2.6917    0.1335 H       1  LIG1       0.16000000000000003
     20 H           1.7010   -0.0066   -3.1897 H       1  LIG1       0.10999999999999999
     21 H          -1.3708    0.7960    2.2258 H       1  LIG1          0.14
     22 H          -0.6961   -1.0042    1.0448 H       1  LIG1          0.14
     23 H          -1.4242    4.7708    2.4521 H       1  LIG1       0.43000000000000005
@<TRIPOS>BOND
     1    20     4    1
     2    11     8    2
     3     4     8    1
     4     4     2    2
     5     8     9    1
     6    18     2    1
     7     2     7    1
     8    17     1    1
     9     9    14    1
    10     9     6    2
    11    14     1    1
    12     7     6    1
    13     7     3    1
    14     1    15    1
    15     1    16    1
    16     6    22    1
    17    19     3    1
    18     3     5    2
    19     5    21    1
    20     5    10    1
    21    13    10    1
    22    13    23    1
    23    10    12    2
