@<TRIPOS>MOLECULE
KSFOVUSSGSKXFI-UJJXFSCMSA-L	11095293	-1834.600721287779
 74 78 0 0 0
SMALL
MULLIKEN NwChem

@<TRIPOS>ATOM
      1 C           6.3248   -3.2759   -0.9824 C.2     1  LIG1      -0.3700000000000001
      2 C           5.4581    4.5561    0.9863 C.2     1  LIG1      -0.3799999999999999
      3 C           2.5909   -5.3265   -2.1154 C.3     1  LIG1      -0.5499999999999998
      4 C           6.1785    1.6986   -0.4371 C.3     1  LIG1      -0.5499999999999998
      5 C          -2.6585   -4.5376   -1.5592 C.3     1  LIG1      -0.5899999999999999
      6 C          -0.9897    4.8512    1.3952 C.3     1  LIG1      -0.5599999999999996
      7 C           5.2213   -3.6357   -1.6579 C.2     1  LIG1      -0.15000000000000036
      8 C           4.2708    4.1077    0.5414 C.2     1  LIG1      -0.15000000000000036
      9 C          -4.5501   -2.1266   -0.5430 C.3     1  LIG1      -0.34999999999999964
     10 C          -3.6200    3.0450    1.1259 C.3     1  LIG1      -0.34999999999999964
     11 C          -5.1071   -2.8082    0.7326 C.3     1  LIG1       -0.3600000000000003
     12 C          -3.8967    3.5577    2.5599 C.3     1  LIG1       -0.34999999999999964
     13 C           0.2305   -3.4405   -1.3642 C.2     1  LIG1      -0.2999999999999998
     14 C           4.2374   -0.7079   -0.8006 C.2     1  LIG1      -0.2999999999999998
     15 C           1.4106    2.9720    0.6061 C.2     1  LIG1      -0.3099999999999996
     16 C          -2.5550    0.2030    0.1491 C.2     1  LIG1      -0.3200000000000003
     17 C           2.7017   -3.8984   -1.6728 C.ar    1  LIG1      0.040000000000000036
     18 C           4.7012    1.6909   -0.1880 C.2     1  LIG1      0.05999999999999961
     19 C          -2.2561   -3.1729   -1.0871 C.2     1  LIG1      0.05999999999999961
     20 C          -1.0611    3.4128    0.9841 C.ar    1  LIG1      0.040000000000000036
     21 C           3.8591   -3.1512   -1.4646 C.ar    1  LIG1       0.009999999999999787
     22 C           3.9032    2.7358    0.2256 C.2     1  LIG1       0.019999999999999574
     23 C          -3.0540   -2.1507   -0.6628 C.2     1  LIG1      0.040000000000000036
     24 C          -2.1975    2.6324    0.8697 C.ar    1  LIG1      0.04999999999999982
     25 C           1.5793   -3.0785   -1.3299 C.ar    1  LIG1       0.34999999999999964
     26 C          -0.8773   -2.6709   -1.0095 C.2     1  LIG1       0.29000000000000004
     27 C           3.8045    0.5603   -0.3919 C.2     1  LIG1       0.28000000000000025
     28 C           0.0761    2.5896    0.6336 C.ar    1  LIG1       0.34999999999999964
     29 C           3.4501   -1.8347   -1.0264 C.ar    1  LIG1       0.34999999999999964
     30 C           2.5305    2.2050    0.2438 C.2     1  LIG1       0.29000000000000004
     31 C          -2.1280   -1.0447   -0.3266 C.2     1  LIG1       0.29000000000000004
     32 C          -1.7679    1.3157    0.4367 C.ar    1  LIG1       0.33999999999999986
     33 C          -5.6315   -4.2850    0.5281 C.2     1  LIG1       0.5300000000000002
     34 C          -3.7379    5.1178    2.7205 C.2     1  LIG1       0.5499999999999998
     35 N           2.0795   -1.8588   -0.9471 N.ar    1  LIG1      -0.7999999999999998
     36 N           2.5072    0.8993   -0.1233 N.2     1  LIG1        -0.71
     37 N          -0.8266   -1.3830   -0.5543 N.2     1  LIG1        -0.71
     38 N          -0.4020    1.3446    0.3118 N.ar    1  LIG1        -0.79
     39 O          -5.9472   -4.8644    1.5906 O.co2   1  LIG1      -0.6799999999999997
     40 O          -5.7090   -4.7052   -0.6624 O.co2   1  LIG1      -0.6500000000000004
     41 O          -3.3228    5.5030    3.8392 O.co2   1  LIG1      -0.6899999999999995
     42 O          -4.0536    5.8020    1.7075 O.co2   1  LIG1      -0.6699999999999999
     43 H           7.2926   -3.7080   -1.2240 H       1  LIG1       0.16000000000000003
     44 H           6.2958   -2.5639   -0.1636 H       1  LIG1       0.17000000000000004
     45 H           6.2867    3.8908    1.2080 H       1  LIG1       0.16000000000000003
     46 H           5.6194    5.6145    1.1740 H       1  LIG1       0.16000000000000003
     47 H           1.9009   -5.4291   -2.9620 H       1  LIG1       0.18000000000000005
     48 H           2.2044   -5.9659   -1.3110 H       1  LIG1       0.18000000000000005
     49 H           3.5599   -5.7339   -2.4196 H       1  LIG1       0.18000000000000005
     50 H           6.4602    0.9800   -1.2151 H       1  LIG1       0.17000000000000004
     51 H           6.7557    1.4429    0.4640 H       1  LIG1       0.18000000000000005
     52 H           6.5120    2.6929   -0.7577 H       1  LIG1       0.17000000000000004
     53 H          -3.7284   -4.7118   -1.3851 H       1  LIG1       0.19999999999999996
     54 H          -2.0984   -5.3192   -1.0260 H       1  LIG1       0.16000000000000003
     55 H          -2.4423   -4.6678   -2.6312 H       1  LIG1       0.16000000000000003
     56 H          -1.0695    4.9566    2.4839 H       1  LIG1       0.17000000000000004
     57 H          -0.0591    5.3246    1.0623 H       1  LIG1       0.17000000000000004
     58 H          -1.8446    5.4088    0.9994 H       1  LIG1       0.18000000000000005
     59 H           5.3328   -4.4004   -2.4282 H       1  LIG1       0.17000000000000004
     60 H           3.4820    4.8470    0.4004 H       1  LIG1       0.16000000000000003
     61 H          -4.9910   -2.6765   -1.3831 H       1  LIG1       0.15000000000000002
     62 H          -4.8982   -1.0873   -0.6114 H       1  LIG1          0.14
     63 H          -3.8894    3.8829    0.4673 H       1  LIG1       0.15000000000000002
     64 H          -4.2828    2.2087    0.8744 H       1  LIG1       0.15000000000000002
     65 H          -5.9592   -2.2301    1.1169 H       1  LIG1          0.14
     66 H          -4.3655   -2.8176    1.5398 H       1  LIG1          0.13
     67 H          -4.9419    3.3234    2.8103 H       1  LIG1          0.14
     68 H          -3.2711    3.0470    3.3003 H       1  LIG1          0.12
     69 H           0.0250   -4.4511   -1.7027 H       1  LIG1       0.17000000000000004
     70 H           5.2968   -0.8321   -0.9853 H       1  LIG1       0.17000000000000004
     71 H           1.5984    3.9947    0.9122 H       1  LIG1       0.17000000000000004
     72 H          -3.6205    0.3249    0.3026 H       1  LIG1       0.17000000000000004
     73 H           1.5117   -1.0629   -0.6686 H       1  LIG1       0.41000000000000003
     74 H           0.1558    0.5488    0.0211 H       1  LIG1            0.4
@<TRIPOS>BOND
     1    47     3    1
     2    55     5    1
     3    59     7    1
     4    49     3    1
     5     3    17    1
     6     3    48    1
     7    69    13    1
     8    17    21   ar
     9    17    25   ar
    10     7    21    1
    11     7     1    2
    12     5    53    1
    13     5    19    1
    14     5    54    1
    15    21    29   ar
    16    61     9    1
    17    13    25    2
    18    13    26    1
    19    25    35   ar
    20    43     1    1
    21    50     4    1
    22    19    26    1
    23    19    23    2
    24    29    35   ar
    25    29    14    2
    26    26    37    2
    27    70    14    1
    28     1    44    1
    29    35    73    1
    30    14    27    1
    31    52     4    1
    32    23     9    1
    33    23    31    1
    34    40    33   ar
    35    62     9    1
    36    37    31    1
    37     9    11    1
    38     4    18    1
    39     4    51    1
    40    27    18    1
    41    27    36    2
    42    31    16    2
    43    18    22    2
    44    36    30    1
    45    74    38    1
    46    16    72    1
    47    16    32    1
    48    22    30    1
    49    22     8    1
    50    30    15    2
    51    38    32   ar
    52    38    28   ar
    53    60     8    1
    54    32    24   ar
    55    63    10    1
    56    33    11    1
    57    33    39   ar
    58     8     2    2
    59    15    28    1
    60    15    71    1
    61    28    20   ar
    62    11    65    1
    63    11    66    1
    64    24    20   ar
    65    24    10    1
    66    64    10    1
    67    20     6    1
    68     2    46    1
    69     2    45    1
    70    58     6    1
    71    57     6    1
    72    10    12    1
    73     6    56    1
    74    42    34   ar
    75    12    34    1
    76    12    67    1
    77    12    68    1
    78    34    41   ar
