@<TRIPOS>MOLECULE
KSMVZQYAVGTKIV-UHFFFAOYSA-N	6044781	-468.10490009631224
 31 30 0 0 0
SMALL
MULLIKEN NwChem

@<TRIPOS>ATOM
      1 C           2.0822   -4.0761   -0.3833 C.3     1  LIG1      -0.45999999999999996
      2 C           1.8966   -3.0629    0.7519 C.3     1  LIG1      -0.2599999999999998
      3 C           2.3059   -1.6284    0.3787 C.3     1  LIG1      -0.2599999999999998
      4 C           1.5418   -1.0150   -0.8086 C.3     1  LIG1      -0.2699999999999996
      5 C           0.0113   -0.9808   -0.6527 C.3     1  LIG1      -0.2699999999999996
      6 C          -0.4986   -0.2457    0.5991 C.3     1  LIG1      -0.2699999999999996
      7 C          -0.0275    1.2129    0.7343 C.3     1  LIG1      -0.28000000000000025
      8 C          -0.3561    2.1242   -0.4619 C.3     1  LIG1      -0.28000000000000025
      9 C          -1.8540    2.2026   -0.8470 C.3     1  LIG1       -0.33999999999999986
     10 C          -2.7061    2.6864    0.3036 C.2     1  LIG1       0.2599999999999998
     11 O          -3.1382    3.8144    0.4057 O.2     1  LIG1      -0.4499999999999993
     12 H           1.4191   -3.8622   -1.2293 H       1  LIG1       0.15000000000000002
     13 H           1.8660   -5.0956   -0.0445 H       1  LIG1          0.14
     14 H           3.1132   -4.0600   -0.7591 H       1  LIG1          0.14
     15 H           0.8501   -3.0760    1.0855 H       1  LIG1          0.14
     16 H           2.4920   -3.3791    1.6189 H       1  LIG1          0.13
     17 H           2.1859   -0.9855    1.2612 H       1  LIG1          0.14
     18 H           3.3793   -1.6174    0.1417 H       1  LIG1          0.13
     19 H           1.9161    0.0044   -0.9716 H       1  LIG1          0.14
     20 H           1.7850   -1.5684   -1.7249 H       1  LIG1          0.13
     21 H          -0.4195   -0.5175   -1.5509 H       1  LIG1          0.14
     22 H          -0.3773   -2.0076   -0.6353 H       1  LIG1          0.14
     23 H          -1.5968   -0.2792    0.6025 H       1  LIG1          0.14
     24 H          -0.1856   -0.7933    1.4975 H       1  LIG1          0.14
     25 H          -0.4597    1.6379    1.6500 H       1  LIG1          0.14
     26 H           1.0595    1.2325    0.8850 H       1  LIG1       0.15000000000000002
     27 H          -0.0042    3.1399   -0.2425 H       1  LIG1       0.15000000000000002
     28 H           0.1997    1.7893   -1.3460 H       1  LIG1       0.16000000000000003
     29 H          -1.9840    2.8990   -1.6816 H       1  LIG1       0.16000000000000003
     30 H          -2.2094    1.2116   -1.1595 H       1  LIG1       0.18000000000000005
     31 H          -2.9077    1.9325    1.0992 H       1  LIG1           0.14
@<TRIPOS>BOND
     1    20     4    1
     2    29     9    1
     3    21     5    1
     4    28     8    1
     5    12     1    1
     6    30     9    1
     7    19     4    1
     8     9     8    1
     9     9    10    1
    10     4     5    1
    11     4     3    1
    12    14     1    1
    13     5    22    1
    14     5     6    1
    15     8    27    1
    16     8     7    1
    17     1    13    1
    18     1     2    1
    19    18     3    1
    20    10    11    2
    21    10    31    1
    22     3     2    1
    23     3    17    1
    24     6    23    1
    25     6     7    1
    26     6    24    1
    27     7    26    1
    28     7    25    1
    29     2    15    1
    30     2    16    1
