@<TRIPOS>MOLECULE
KTVPXOYAKDPRHY-AIHAYLRMSA-L	6044783	-1139.3029409745466
 23 23 0 0 0
SMALL
MULLIKEN NwChem

@<TRIPOS>ATOM
      1 C          -0.2362   -1.1159    1.1190 C.3     1  LIG1       -0.05999999999999961
      2 C          -0.7381    0.2429    0.6253 C.3     1  LIG1       0.13999999999999968
      3 C           0.3567    1.3097    0.3074 C.3     1  LIG1       0.040000000000000036
      4 C           0.0491    2.4340    1.3541 C.3     1  LIG1       0.09999999999999964
      5 C          -1.4810    2.2567    1.4367 C.3     1  LIG1       0.29000000000000004
      6 O           0.2037    1.8859   -0.9512 O.3     1  LIG1      -0.7799999999999994
      7 O           0.4964    3.6702    0.8422 O.3     1  LIG1      -0.7100000000000009
      8 O          -2.0985    2.7067    0.2577 O.3     1  LIG1      -0.6999999999999993
      9 O           2.4326   -1.2179   -0.1952 O.3     1  LIG1      -0.7300000000000004
     10 O           1.4025   -3.0890   -1.7595 O.2     1  LIG1      -0.6999999999999993
     11 O           0.6863   -0.6712   -2.0509 O.3     1  LIG1      -0.7799999999999994
     12 O          -0.0119   -2.0252    0.0572 O.3     1  LIG1      -0.6099999999999994
     13 O          -1.6079    0.8473    1.6315 O.3     1  LIG1      -0.5500000000000007
     14 P           1.2936   -1.7918   -1.0082 P.3     1  LIG1       1.0899999999999999
     15 H          -1.0179   -1.5577    1.7572 H       1  LIG1          0.14
     16 H           0.6735   -0.9893    1.7264 H       1  LIG1          0.13
     17 H          -1.3217    0.0692   -0.2867 H       1  LIG1          0.12
     18 H           1.3586    0.8768    0.4560 H       1  LIG1       0.10999999999999999
     19 H           0.4959    2.2411    2.3406 H       1  LIG1          0.12
     20 H          -1.9821    2.7364    2.2898 H       1  LIG1          0.13
     21 H           0.6301    0.2597   -1.7015 H       1  LIG1       0.43000000000000005
     22 H           0.5466    3.3987   -0.1255 H       1  LIG1          0.39
     23 H          -1.4233    2.4846   -0.4558 H       1  LIG1           0.39
@<TRIPOS>BOND
     1    11    21    1
     2    11    14    1
     3    10    14    2
     4    14     9    1
     5    14    12    1
     6     6     3    1
     7    23     8    1
     8    17     2    1
     9    22     7    1
    10    12     1    1
    11     8     5    1
    12     3    18    1
    13     3     2    1
    14     3     4    1
    15     2     1    1
    16     2    13    1
    17     7     4    1
    18     1    16    1
    19     1    15    1
    20     4     5    1
    21     4    19    1
    22     5    13    1
    23     5    20    1
