@<TRIPOS>MOLECULE
KTVPXOYAKDPRHY-TXICZTDVSA-L	6044784	-1139.3011134961798
 23 23 0 0 0
SMALL
MULLIKEN NwChem

@<TRIPOS>ATOM
      1 C           0.7660    1.3023   -1.1009 C.3     1  LIG1       -0.040000000000000036
      2 C          -0.2526    0.2018   -1.4879 C.3     1  LIG1       0.11000000000000032
      3 C          -0.9831   -0.4547   -0.2862 C.3     1  LIG1       0.009999999999999787
      4 C          -0.9741   -1.9322   -0.6489 C.3     1  LIG1       0.11000000000000032
      5 C           0.4220   -2.0010   -1.2858 C.3     1  LIG1       0.2999999999999998
      6 O          -2.2545    0.0844   -0.0158 O.3     1  LIG1        -0.75
      7 O          -2.0253   -2.2474   -1.5736 O.3     1  LIG1      -0.6999999999999993
      8 O           1.4342   -1.9922   -0.3057 O.3     1  LIG1      -0.7100000000000009
      9 O          -1.0840    1.4064    1.8897 O.3     1  LIG1      -0.7899999999999991
     10 O           1.2688    0.3623    1.4695 O.2     1  LIG1      -0.7799999999999994
     11 O           1.0543    2.8339    2.2860 O.3     1  LIG1      -0.7300000000000004
     12 O           0.3103    2.1854   -0.1190 O.3     1  LIG1      -0.6400000000000006
     13 O           0.4598   -0.8792   -2.1579 O.3     1  LIG1      -0.5399999999999991
     14 P           0.4185    1.6652    1.5610 P.3     1  LIG1       1.0500000000000007
     15 H           1.0012    1.8836   -2.0143 H       1  LIG1          0.12
     16 H           1.6852    0.7876   -0.7932 H       1  LIG1          0.12
     17 H          -1.0117    0.5859   -2.1843 H       1  LIG1          0.13
     18 H          -0.3586   -0.3559    0.5990 H       1  LIG1       0.16000000000000003
     19 H          -1.0370   -2.5883    0.2318 H       1  LIG1          0.13
     20 H           0.5884   -2.8952   -1.9010 H       1  LIG1       0.15000000000000002
     21 H          -1.9896    0.7120    0.7654 H       1  LIG1       0.43000000000000005
     22 H          -2.6816   -1.5540   -1.3714 H       1  LIG1       0.43000000000000005
     23 H           1.3550   -1.1868    0.2829 H       1  LIG1       0.43999999999999995
@<TRIPOS>BOND
     1    17     2    1
     2    13     2    1
     3    13     5    1
     4    15     1    1
     5    20     5    1
     6     7    22    1
     7     7     4    1
     8     2     1    1
     9     2     3    1
    10     5     4    1
    11     5     8    1
    12     1    16    1
    13     1    12    1
    14     4     3    1
    15     4    19    1
    16     8    23    1
    17     3     6    1
    18     3    18    1
    19    12    14    1
    20     6    21    1
    21    10    14    2
    22    14     9    1
    23    14    11    1
