@<TRIPOS>MOLECULE
KWIZRXMMFRBUML-AHGFGAHVSA-F	11095291	-3046.488707264248
 100 104 0 0 0
SMALL
MULLIKEN NwChem

@<TRIPOS>ATOM
      1 C          -4.6689    2.8898   -0.5383 C.3     1  LIG1      -0.4900000000000002
      2 C          -2.8043   -4.6035   -1.2668 C.3     1  LIG1      -0.46999999999999975
      3 C           5.2321    2.3451    1.0491 C.3     1  LIG1      -0.34999999999999964
      4 C           4.9050   -3.3116    0.4890 C.3     1  LIG1      -0.33000000000000007
      5 C          -2.3580    4.4494   -1.6437 C.3     1  LIG1      -0.2599999999999998
      6 C          -4.7696   -2.3815   -1.4008 C.3     1  LIG1      -0.2599999999999998
      7 C           6.2007    3.1689    0.1630 C.3     1  LIG1       -0.3600000000000003
      8 C           5.2362   -3.7506    1.9390 C.3     1  LIG1       -0.3700000000000001
      9 C          -3.1876    5.7536   -1.6275 C.3     1  LIG1       -0.3799999999999999
     10 C          -6.0723   -3.1658   -1.1346 C.3     1  LIG1       -0.3799999999999999
     11 C           3.0820    4.6865    0.8528 C.3     1  LIG1       -0.4400000000000004
     12 C           2.4872   -5.3031    0.0469 C.3     1  LIG1       -0.4900000000000002
     13 C           3.5645   -0.3188    0.3700 C.2     1  LIG1      -0.3099999999999996
     14 C           0.3662    3.3528   -0.0575 C.2     1  LIG1      -0.3200000000000003
     15 C          -0.1505   -3.5072   -0.1351 C.2     1  LIG1      -0.33000000000000007
     16 C          -3.3200    0.1592   -0.0948 C.2     1  LIG1      -0.33000000000000007
     17 C          -3.5871    2.8549    1.7427 C.3     1  LIG1       -0.3799999999999999
     18 C          -2.8684   -4.3189    1.2728 C.3     1  LIG1       -0.3799999999999999
     19 C           3.7884    2.2189    0.5861 C.2     1  LIG1      0.040000000000000036
     20 C           3.4614   -2.8995    0.2613 C.ar    1  LIG1      0.009999999999999787
     21 C           2.8691    3.2422    0.4727 C.2     1  LIG1      0.03000000000000025
     22 C           2.3972   -3.7974    0.0653 C.ar    1  LIG1      0.04999999999999982
     23 C          -2.1967    3.7641   -0.2434 C.2     1  LIG1      -0.17999999999999972
     24 C          -3.7455   -2.3906   -0.2185 C.2     1  LIG1      -0.1900000000000004
     25 C           3.0375    0.9753    0.3239 C.2     1  LIG1       0.2400000000000002
     26 C           2.9176   -1.5696    0.2303 C.ar    1  LIG1       0.29000000000000004
     27 C           1.5880    2.6049    0.1256 C.2     1  LIG1          0.25
     28 C           1.1929   -3.0238   -0.0484 C.ar    1  LIG1       0.3200000000000003
     29 C          -0.9258    2.9076   -0.1399 C.2     1  LIG1       0.3600000000000003
     30 C          -2.8034   -1.1668   -0.1764 C.2     1  LIG1       0.33000000000000007
     31 C          -1.3614   -2.8470   -0.1443 C.2     1  LIG1       0.3099999999999996
     32 C          -2.6641    1.3770   -0.0388 C.2     1  LIG1       0.40000000000000036
     33 C           7.6363    3.4139    0.7645 C.2     1  LIG1       0.5199999999999996
     34 C           6.6640   -4.3568    2.2216 C.2     1  LIG1       0.5099999999999998
     35 C          -3.7336    6.2974   -2.9998 C.2     1  LIG1       0.5099999999999998
     36 C          -7.0562   -3.3416   -2.3492 C.2     1  LIG1           0.5
     37 C           3.2437    5.7972   -0.2707 C.2     1  LIG1       0.5199999999999996
     38 C           3.0384   -6.0790   -1.2338 C.2     1  LIG1       0.5300000000000002
     39 C          -4.3528    4.0967    2.3488 C.2     1  LIG1       0.5300000000000002
     40 C          -4.0942   -5.2499    1.6306 C.2     1  LIG1       0.5199999999999996
     41 C          -3.3303    2.7498    0.2002 C.2     1  LIG1      0.019999999999999574
     42 C          -2.7301   -3.5945   -0.1058 C.2     1  LIG1      0.040000000000000036
     43 N           1.6997    1.2640    0.0585 N.2     1  LIG1      -0.7000000000000002
     44 N           1.5524   -1.7043    0.0349 N.ar    1  LIG1      -0.7800000000000002
     45 N          -1.3209    1.5790   -0.1138 N.pl3   1  LIG1        -0.71
     46 N          -1.5117   -1.4774   -0.1543 N.2     1  LIG1      -0.6299999999999999
     47 O           7.7449    3.4390    2.0237 O.co2   1  LIG1      -0.6799999999999997
     48 O           8.5606    3.6135   -0.0812 O.co2   1  LIG1      -0.6999999999999993
     49 O           7.5127   -4.3470    1.2906 O.co2   1  LIG1      -0.6799999999999997
     50 O           6.8228   -4.8028    3.4002 O.co2   1  LIG1      -0.6999999999999993
     51 O          -3.8314    5.4891   -3.9631 O.co2   1  LIG1      -0.6799999999999997
     52 O          -4.0739    7.5219   -2.9962 O.co2   1  LIG1      -0.6999999999999993
     53 O          -8.2829   -3.4768   -2.0484 O.co2   1  LIG1      -0.6999999999999993
     54 O          -6.5546   -3.3798   -3.5076 O.co2   1  LIG1      -0.6799999999999997
     55 O           2.3911    5.7907   -1.1918 O.co2   1  LIG1      -0.6600000000000001
     56 O           4.1804    6.6253   -0.0763 O.co2   1  LIG1      -0.6799999999999997
     57 O           2.7797   -7.3191   -1.2157 O.co2   1  LIG1      -0.6899999999999995
     58 O           3.7018   -5.4378   -2.0825 O.co2   1  LIG1      -0.6600000000000001
     59 O          -4.6919    3.9392    3.5573 O.co2   1  LIG1      -0.6899999999999995
     60 O          -4.5485    5.1101    1.6271 O.co2   1  LIG1      -0.6500000000000004
     61 O          -4.3245   -5.3424    2.8710 O.co2   1  LIG1      -0.6899999999999995
     62 O          -4.6712   -5.8845    0.7044 O.co2   1  LIG1      -0.6600000000000001
     63 H          -5.1012    3.8616   -0.2981 H       1  LIG1       0.17000000000000004
     64 H          -5.3675    2.1144   -0.1972 H       1  LIG1       0.15000000000000002
     65 H          -4.5590    2.7915   -1.6221 H       1  LIG1       0.15000000000000002
     66 H          -3.7836   -5.0805   -1.2949 H       1  LIG1       0.16000000000000003
     67 H          -2.0572   -5.3931   -1.1172 H       1  LIG1          0.14
     68 H          -2.5846   -4.1180   -2.2249 H       1  LIG1          0.14
     69 H           5.6631    1.3463    1.1997 H       1  LIG1          0.14
     70 H           5.2596    2.8160    2.0425 H       1  LIG1          0.14
     71 H           5.1258   -4.1399   -0.1934 H       1  LIG1          0.13
     72 H           5.5890   -2.5002    0.2104 H       1  LIG1          0.14
     73 H          -1.3499    4.6766   -2.0135 H       1  LIG1          0.13
     74 H          -2.7913    3.7585   -2.3746 H       1  LIG1          0.14
     75 H          -4.3159   -2.7636   -2.3195 H       1  LIG1          0.13
     76 H          -5.0286   -1.3362   -1.6203 H       1  LIG1          0.13
     77 H           5.7582    4.1584   -0.0254 H       1  LIG1          0.13
     78 H           6.3145    2.6951   -0.8215 H       1  LIG1          0.12
     79 H           5.1020   -2.8949    2.6192 H       1  LIG1          0.14
     80 H           4.5021   -4.4947    2.2784 H       1  LIG1          0.14
     81 H          -4.0441    5.6365   -0.9514 H       1  LIG1       0.15000000000000002
     82 H          -2.5920    6.5562   -1.1692 H       1  LIG1          0.12
     83 H          -6.6313   -2.6834   -0.3182 H       1  LIG1          0.12
     84 H          -5.8192   -4.1662   -0.7534 H       1  LIG1       0.15000000000000002
     85 H           2.2091    5.0128    1.4432 H       1  LIG1       0.15000000000000002
     86 H           3.9546    4.7604    1.5118 H       1  LIG1          0.13
     87 H           1.5124   -5.7487    0.2775 H       1  LIG1       0.15000000000000002
     88 H           3.1523   -5.6278    0.8607 H       1  LIG1       0.16000000000000003
     89 H           4.6335   -0.3915    0.5554 H       1  LIG1       0.17000000000000004
     90 H           0.5105    4.4265   -0.1517 H       1  LIG1          0.14
     91 H          -0.2126   -4.5913   -0.1512 H       1  LIG1       0.15000000000000002
     92 H          -4.4023    0.2221   -0.0376 H       1  LIG1       0.15000000000000002
     93 H          -2.6187    2.7945    2.2607 H       1  LIG1       0.15000000000000002
     94 H          -4.1406    1.9618    2.0609 H       1  LIG1          0.14
     95 H          -1.9800   -4.9588    1.3952 H       1  LIG1          0.14
     96 H          -2.7907   -3.5659    2.0674 H       1  LIG1          0.12
     97 H          -2.1583    4.5658    0.5002 H       1  LIG1       0.15000000000000002
     98 H          -4.3468   -2.3636    0.7029 H       1  LIG1       0.15000000000000002
     99 H           0.9204   -0.9131   -0.0166 H       1  LIG1          0.38
    100 H          -0.6427    0.8188   -0.1334 H       1  LIG1           0.39
@<TRIPOS>BOND
     1    51    35   ar
     2    54    36   ar
     3    35    52   ar
     4    35     9    1
     5    74     5    1
     6    36    53   ar
     7    36    10    1
     8    75     6    1
     9    68     2    1
    10    58    38   ar
    11    73     5    1
    12     5     9    1
    13     5    23    1
    14     9    82    1
    15     9    81    1
    16    65     1    1
    17    76     6    1
    18     6    10    1
    19     6    24    1
    20    66     2    1
    21     2    67    1
    22     2    42    1
    23    38    57   ar
    24    38    12    1
    25    55    37   ar
    26    10    84    1
    27    10    83    1
    28    78     7    1
    29     1    63    1
    30     1    64    1
    31     1    41    1
    32    37    56   ar
    33    37    11    1
    34    23    29    2
    35    23    41    1
    36    23    97    1
    37    24    30    1
    38    24    42    2
    39    24    98    1
    40    71     4    1
    41    30    46    1
    42    30    16    2
    43    46    31    2
    44    90    14    1
    45    91    15    1
    46    31    15    1
    47    31    42    1
    48    29    45    1
    49    29    14    1
    50    15    28    2
    51   100    45    1
    52    45    32    1
    53    42    18    1
    54    16    32    1
    55    16    92    1
    56    48    33   ar
    57    14    27    2
    58    28    44   ar
    59    28    22   ar
    60    32    41    2
    61    77     7    1
    62    99    44    1
    63    44    26   ar
    64    12    22    1
    65    12    87    1
    66    12    88    1
    67    43    27    1
    68    43    25    2
    69    22    20   ar
    70    27    21    1
    71     7    33    1
    72     7     3    1
    73    41    17    1
    74    72     4    1
    75    26    20   ar
    76    26    13    2
    77    20     4    1
    78    25    13    1
    79    25    19    1
    80    13    89    1
    81    21    19    2
    82    21    11    1
    83     4     8    1
    84    19     3    1
    85    62    40   ar
    86    33    47   ar
    87    11    85    1
    88    11    86    1
    89     3    69    1
    90     3    70    1
    91    18    95    1
    92    18    40    1
    93    18    96    1
    94    49    34   ar
    95    60    39   ar
    96    40    61   ar
    97    17    94    1
    98    17    93    1
    99    17    39    1
   100     8    34    1
   101     8    80    1
   102     8    79    1
   103    34    50   ar
   104    39    59   ar
