@<TRIPOS>MOLECULE
KWVISVAMQJWJSZ-RQOMMASJSA-N	6044787	-1259.404657299507
 73 78 0 0 0
SMALL
MULLIKEN NwChem

@<TRIPOS>ATOM
      1 C          -4.1062    5.5621   -3.7057 C.3     1  LIG1      -0.46999999999999975
      2 C          -2.7213    2.8964    0.4369 C.3     1  LIG1      -0.4800000000000004
      3 C          -0.3853   -4.1106    1.7348 C.3     1  LIG1      -0.4900000000000002
      4 C          -0.6625    1.1099    2.6078 C.3     1  LIG1      -0.4900000000000002
      5 C           2.6254   -2.5297    2.8838 C.2     1  LIG1      -0.23000000000000043
      6 C           2.3299   -1.0657    2.6877 C.3     1  LIG1      -0.3200000000000003
      7 C          -3.3951    3.2690   -2.8768 C.3     1  LIG1      -0.29000000000000004
      8 C           1.8725   -5.2060   -0.1367 C.3     1  LIG1      -0.2999999999999998
      9 C          -0.4707   -1.3514    0.0892 C.3     1  LIG1      -0.2999999999999998
     10 C           1.2858   -3.7836   -0.1497 C.3     1  LIG1      -0.29000000000000004
     11 C          -1.0921    0.0435    0.3302 C.3     1  LIG1      -0.3200000000000003
     12 C          -2.2134    2.3540   -2.5201 C.3     1  LIG1      -0.2999999999999998
     13 C           2.5268   -4.9395    2.2872 C.3     1  LIG1      -0.3600000000000003
     14 C           1.7145    1.1066   -0.3772 C.3     1  LIG1      -0.3200000000000003
     15 C          -1.8822    5.2200   -2.5345 C.3     1  LIG1       -0.13999999999999968
     16 C          -2.9326    4.6088   -3.4682 C.3     1  LIG1      -0.05999999999999961
     17 C          -1.3340    3.2129   -0.1331 C.3     1  LIG1       -0.1299999999999999
     18 C           2.0098   -3.5197    2.2221 C.2     1  LIG1      0.16999999999999993
     19 C           2.9974   -5.3699    0.8918 C.3     1  LIG1       0.16000000000000014
     20 C           1.6433   -0.8486    1.3347 C.3     1  LIG1      -0.09999999999999964
     21 C           0.4252   -1.7874    1.2526 C.3     1  LIG1      -0.11000000000000032
     22 C           1.2984    0.6323    1.0353 C.3     1  LIG1      -0.1200000000000001
     23 C           0.8663    2.3573   -0.6440 C.3     1  LIG1       0.1299999999999999
     24 C          -0.1293    2.4851    0.5230 C.3     1  LIG1      -0.13999999999999968
     25 C           0.8406   -3.2913    1.2570 C.3     1  LIG1      0.040000000000000036
     26 C          -0.2026    1.0450    1.1402 C.3     1  LIG1      0.1200000000000001
     27 C          -1.1024    3.0294   -1.6992 C.3     1  LIG1       0.45999999999999996
     28 N          -0.7635    4.2899   -2.3779 N.3     1  LIG1      -0.6299999999999999
     29 O           3.4289   -6.7261    0.9940 O.3     1  LIG1      -0.6899999999999995
     30 O           0.0397    2.1718   -1.7959 O.3     1  LIG1      -0.5700000000000003
     31 H          -4.6160    5.8006   -2.7631 H       1  LIG1       0.15000000000000002
     32 H          -4.8468    5.1151   -4.3792 H       1  LIG1       0.15000000000000002
     33 H          -3.7712    6.5059   -4.1528 H       1  LIG1       0.15000000000000002
     34 H          -3.4763    3.5678    0.0189 H       1  LIG1       0.16000000000000003
     35 H          -3.0408    1.8708    0.2423 H       1  LIG1       0.16000000000000003
     36 H          -2.7241    3.0458    1.5217 H       1  LIG1       0.15000000000000002
     37 H          -0.2085   -5.1887    1.7145 H       1  LIG1       0.16000000000000003
     38 H          -0.6493   -3.8382    2.7628 H       1  LIG1       0.15000000000000002
     39 H          -1.2535   -3.9119    1.0969 H       1  LIG1       0.15000000000000002
     40 H          -0.6240    0.1283    3.0893 H       1  LIG1       0.16000000000000003
     41 H          -0.0263    1.7885    3.1896 H       1  LIG1          0.14
     42 H          -1.6941    1.4677    2.6860 H       1  LIG1       0.15000000000000002
     43 H           3.4423   -2.7841    3.5592 H       1  LIG1          0.12
     44 H           1.6997   -0.6692    3.4997 H       1  LIG1       0.15000000000000002
     45 H           3.2680   -0.4945    2.7341 H       1  LIG1          0.14
     46 H          -4.0539    2.7500   -3.5853 H       1  LIG1          0.14
     47 H          -4.0055    3.4718   -1.9874 H       1  LIG1          0.14
     48 H           1.0970   -5.9455    0.0979 H       1  LIG1          0.14
     49 H           2.2489   -5.4572   -1.1389 H       1  LIG1          0.14
     50 H           0.1223   -1.3393   -0.8332 H       1  LIG1          0.14
     51 H          -1.2801   -2.0698   -0.0843 H       1  LIG1          0.14
     52 H           2.0405   -3.0902   -0.5436 H       1  LIG1          0.14
     53 H           0.4367   -3.7495   -0.8426 H       1  LIG1          0.14
     54 H          -2.0402   -0.0856    0.8660 H       1  LIG1          0.14
     55 H          -1.3354    0.4668   -0.6437 H       1  LIG1       0.15000000000000002
     56 H          -2.5662    1.4584   -2.0004 H       1  LIG1       0.15000000000000002
     57 H          -1.7250    2.0184   -3.4414 H       1  LIG1          0.14
     58 H           3.3616   -5.0251    2.9908 H       1  LIG1       0.15000000000000002
     59 H           1.7562   -5.6505    2.6126 H       1  LIG1       0.15000000000000002
     60 H           2.7911    1.2961   -0.4423 H       1  LIG1          0.14
     61 H           1.4702    0.3577   -1.1364 H       1  LIG1       0.15000000000000002
     62 H          -1.4913    6.1509   -2.9627 H       1  LIG1          0.14
     63 H          -2.3712    5.4914   -1.5755 H       1  LIG1          0.12
     64 H          -2.4292    4.4086   -4.4245 H       1  LIG1          0.12
     65 H          -1.1752    4.2827    0.0584 H       1  LIG1          0.14
     66 H           3.8417   -4.7184    0.6038 H       1  LIG1          0.12
     67 H           2.3608   -1.1740    0.5670 H       1  LIG1          0.13
     68 H          -0.1516   -1.6477    2.1777 H       1  LIG1          0.13
     69 H           1.8476    1.2570    1.7561 H       1  LIG1          0.12
     70 H           1.4840    3.2610   -0.7691 H       1  LIG1          0.13
     71 H           0.2922    3.1274    1.3072 H       1  LIG1          0.13
     72 H          -0.0005    4.7419   -1.8775 H       1  LIG1       0.31999999999999995
     73 H           3.7253   -7.0068    0.1139 H       1  LIG1       0.42000000000000004
@<TRIPOS>BOND
     1    64    16    1
     2    32     1    1
     3    33     1    1
     4     1    16    1
     5     1    31    1
     6    46     7    1
     7    16     7    1
     8    16    15    1
     9    57    12    1
    10    62    15    1
    11     7    12    1
    12     7    47    1
    13    15    28    1
    14    15    63    1
    15    12    56    1
    16    12    27    1
    17    28    72    1
    18    28    27    1
    19    30    27    1
    20    30    23    1
    21    27    17    1
    22    49     8    1
    23    61    14    1
    24    53    10    1
    25    50     9    1
    26    70    23    1
    27    23    14    1
    28    23    24    1
    29    55    11    1
    30    52    10    1
    31    60    14    1
    32    14    22    1
    33    10     8    1
    34    10    25    1
    35     8    48    1
    36     8    19    1
    37    17    65    1
    38    17     2    1
    39    17    24    1
    40    51     9    1
    41    34     2    1
    42     9    11    1
    43     9    21    1
    44    73    29    1
    45    35     2    1
    46    11    54    1
    47    11    26    1
    48     2    36    1
    49    24    26    1
    50    24    71    1
    51    67    20    1
    52    66    19    1
    53    19    29    1
    54    19    13    1
    55    22    26    1
    56    22    20    1
    57    22    69    1
    58    39     3    1
    59    26     4    1
    60    21    25    1
    61    21    20    1
    62    21    68    1
    63    25     3    1
    64    25    18    1
    65    20     6    1
    66    37     3    1
    67     3    38    1
    68    18    13    1
    69    18     5    2
    70    13    59    1
    71    13    58    1
    72     4    42    1
    73     4    40    1
    74     4    41    1
    75     6    45    1
    76     6     5    1
    77     6    44    1
    78     5    43    1
