@<TRIPOS>MOLECULE
KXDHJXZQYSOELW-UHFFFAOYSA-M	6044788	-244.64757442971626
 6 5 0 0 0
SMALL
MULLIKEN NwChem

@<TRIPOS>ATOM
      1 C           0.0921   -0.1473    0.0645 C.2     1  LIG1       0.5700000000000003
      2 N          -0.6465    0.7229   -0.8839 N.am    1  LIG1      -0.7999999999999998
      3 O          -0.6351   -0.9305    0.7221 O.co2   1  LIG1      -0.6899999999999995
      4 O           1.3371    0.0095    0.0498 O.co2   1  LIG1      -0.6799999999999997
      5 H          -1.5724    0.9107   -0.5040 H       1  LIG1       0.30000000000000004
      6 H          -0.1357    1.5970   -0.9943 H       1  LIG1       0.30000000000000004
@<TRIPOS>BOND
     1     6     2    1
     2     2     5    1
     3     2     1   am
     4     4     1   ar
     5     1     3   ar
