@<TRIPOS>MOLECULE
KYBJQEICWVEWIL-TUUMQRACSA-M	6044789	-1976.6634366228525
 110 110 0 0 0
SMALL
MULLIKEN NwChem

@<TRIPOS>ATOM
      1 C          -2.7222   -4.3113    2.5582 C.3     1  LIG1            -0.54
      2 C          -4.2577   -4.5948    0.5480 C.3     1  LIG1        -0.54
      3 C          -5.2522    0.8759    3.5896 C.3     1  LIG1        -0.54
      4 C          -4.6688   -0.7718   -2.4398 C.3     1  LIG1        -0.54
      5 C          -0.1478   -3.8769   -0.2523 C.3     1  LIG1        -0.54
      6 C          -0.8055   -0.2463    2.3743 C.3     1  LIG1      -0.5499999999999998
      7 C          -2.6542    4.0855   -0.9885 C.3     1  LIG1      -0.5300000000000002
      8 C           0.8375    0.0953   -4.7955 C.3     1  LIG1        -0.54
      9 C           5.7954   -2.6966    0.7170 C.3     1  LIG1       -0.23000000000000043
     10 C          -4.8793   -2.5486    3.8375 C.3     1  LIG1      -0.3099999999999996
     11 C          -4.8377    0.6787    0.4797 C.3     1  LIG1      -0.33000000000000007
     12 C          -1.8779   -2.0939   -2.2957 C.3     1  LIG1      -0.3200000000000003
     13 C           1.5813   -1.6918    1.1226 C.3     1  LIG1      -0.33000000000000007
     14 C          -0.6983    2.8094    1.6521 C.3     1  LIG1      -0.2999999999999998
     15 C          -1.0756    2.2349   -2.9787 C.3     1  LIG1      -0.3200000000000003
     16 C          -5.0098   -3.2665    2.5126 C.2     1  LIG1      -0.17999999999999972
     17 C          -3.9470   -1.3067    3.7538 C.3     1  LIG1      -0.33999999999999986
     18 C          -4.3103   -0.2603    1.5315 C.2     1  LIG1      -0.16000000000000014
     19 C          -3.8453    0.9028   -0.6895 C.3     1  LIG1      -0.34999999999999964
     20 C          -2.3475   -0.9096   -1.4834 C.2     1  LIG1      -0.1900000000000004
     21 C          -0.3421   -2.2754   -2.2403 C.3     1  LIG1      -0.3600000000000003
     22 C           0.9685   -1.6208   -0.2464 C.2     1  LIG1      -0.16000000000000014
     23 C           1.6910   -0.3042    1.7898 C.3     1  LIG1      -0.3600000000000003
     24 C           0.4078    1.7908    1.5177 C.2     1  LIG1      -0.1900000000000004
     25 C          -0.6480    3.9121    0.5632 C.3     1  LIG1      -0.33999999999999986
     26 C          -0.6368    2.6930   -1.6129 C.2     1  LIG1      -0.16999999999999993
     27 C           0.0598    2.3998   -4.0291 C.3     1  LIG1      -0.33000000000000007
     28 C           2.2061    1.4638   -3.1734 C.2     1  LIG1      -0.17999999999999972
     29 C           3.3356    0.4860   -2.9435 C.3     1  LIG1      -0.3899999999999997
     30 C           4.3322    1.7893   -1.0108 C.2     1  LIG1      -0.2599999999999998
     31 C           5.1637    0.6912    0.9828 C.2     1  LIG1      -0.2699999999999996
     32 C          -4.0674   -4.0252    1.9336 C.2     1  LIG1      0.17999999999999972
     33 C          -4.4938   -0.2071    2.8613 C.2     1  LIG1      0.16000000000000014
     34 C          -3.5517   -0.3215   -1.5293 C.2     1  LIG1      0.17999999999999972
     35 C           0.1917   -2.5334   -0.8487 C.2     1  LIG1      0.16000000000000014
     36 C           0.4042    0.4936    1.8592 C.2     1  LIG1      0.1900000000000004
     37 C          -1.2756    3.5143   -0.7648 C.2     1  LIG1      0.16000000000000014
     38 C           1.1203    1.3141   -3.9488 C.2     1  LIG1      0.15000000000000036
     39 C           3.9769    0.5771   -1.5696 C.2     1  LIG1       0.04999999999999982
     40 C           4.9216    1.8901    0.2715 C.3     1  LIG1       0.04999999999999982
     41 C           4.8352   -0.5314    0.4485 C.2     1  LIG1       0.28000000000000025
     42 C           4.2162   -0.6768   -0.8650 C.2     1  LIG1       0.34999999999999964
     43 C           5.2880    3.1534    0.8711 C.2     1  LIG1           0.5
     44 O           3.8899   -1.8035   -1.3375 O.2     1  LIG1      -0.7100000000000009
     45 O           5.7864    3.3360    1.9803 O.2     1  LIG1      -0.5800000000000001
     46 O           5.0357    4.2538    0.0685 O.3     1  LIG1      -0.6300000000000008
     47 O           4.9980   -1.6505    1.2620 O.2     1  LIG1      -0.5500000000000007
     48 H          -2.4481   -5.3685    2.4405 H       1  LIG1       0.15000000000000002
     49 H          -2.6803   -4.0656    3.6235 H       1  LIG1       0.16000000000000003
     50 H          -1.9385   -3.7299    2.0572 H       1  LIG1       0.18000000000000005
     51 H          -5.2604   -4.3994    0.1553 H       1  LIG1       0.16000000000000003
     52 H          -3.5342   -4.1522   -0.1495 H       1  LIG1       0.18000000000000005
     53 H          -4.0866   -5.6809    0.5301 H       1  LIG1       0.15000000000000002
     54 H          -5.6478    1.6484    2.9258 H       1  LIG1       0.16000000000000003
     55 H          -6.0989    0.4600    4.1598 H       1  LIG1       0.16000000000000003
     56 H          -4.5917    1.3635    4.3252 H       1  LIG1       0.16000000000000003
     57 H          -4.8665   -0.0082   -3.2094 H       1  LIG1       0.16000000000000003
     58 H          -4.4481   -1.7140   -2.9494 H       1  LIG1       0.16000000000000003
     59 H          -5.6080   -0.9068   -1.8873 H       1  LIG1       0.16000000000000003
     60 H           0.4377   -4.6646   -0.7498 H       1  LIG1       0.16000000000000003
     61 H           0.0796   -3.9397    0.8154 H       1  LIG1       0.17000000000000004
     62 H          -1.2062   -4.1370   -0.3881 H       1  LIG1       0.17000000000000004
     63 H          -0.5935   -0.7067    3.3503 H       1  LIG1       0.15000000000000002
     64 H          -1.6896    0.3834    2.4828 H       1  LIG1       0.17000000000000004
     65 H          -1.0691   -1.0668    1.6934 H       1  LIG1       0.17000000000000004
     66 H          -2.6233    5.1841   -1.0068 H       1  LIG1       0.15000000000000002
     67 H          -3.1210    3.7420   -1.9141 H       1  LIG1       0.16000000000000003
     68 H          -3.3240    3.8018   -0.1622 H       1  LIG1       0.17000000000000004
     69 H           0.9177    0.3454   -5.8636 H       1  LIG1       0.16000000000000003
     70 H           1.5251   -0.7272   -4.5911 H       1  LIG1       0.16000000000000003
     71 H          -0.1860   -0.2719   -4.6343 H       1  LIG1       0.17000000000000004
     72 H           5.3525   -3.0893   -0.2017 H       1  LIG1       0.16000000000000003
     73 H           6.8200   -2.3462    0.5164 H       1  LIG1          0.14
     74 H           5.8348   -3.4782    1.4839 H       1  LIG1       0.16000000000000003
     75 H          -5.8725   -2.2350    4.1825 H       1  LIG1          0.14
     76 H          -4.4836   -3.2251    4.6057 H       1  LIG1       0.15000000000000002
     77 H          -5.7826    0.2820    0.0736 H       1  LIG1       0.15000000000000002
     78 H          -5.0870    1.6565    0.9105 H       1  LIG1       0.15000000000000002
     79 H          -2.3693   -3.0150   -1.9444 H       1  LIG1       0.16000000000000003
     80 H          -2.1832   -1.9799   -3.3464 H       1  LIG1       0.15000000000000002
     81 H           1.0169   -2.3743    1.7735 H       1  LIG1          0.14
     82 H           2.5977   -2.0952    1.0374 H       1  LIG1       0.16000000000000003
     83 H          -1.6917    2.3429    1.6529 H       1  LIG1       0.16000000000000003
     84 H          -0.5936    3.3033    2.6330 H       1  LIG1          0.14
     85 H          -1.3772    1.1785   -2.9401 H       1  LIG1       0.16000000000000003
     86 H          -1.9577    2.7928   -3.3139 H       1  LIG1          0.14
     87 H          -5.9236   -3.0748    1.9498 H       1  LIG1          0.12
     88 H          -3.7873   -0.9143    4.7682 H       1  LIG1          0.13
     89 H          -2.9719   -1.6390    3.3878 H       1  LIG1       0.17000000000000004
     90 H          -3.7296   -1.0947    1.1396 H       1  LIG1          0.12
     91 H          -4.2674    1.6843   -1.3385 H       1  LIG1          0.14
     92 H          -2.9077    1.3032   -0.2937 H       1  LIG1       0.16000000000000003
     93 H          -1.6036   -0.4913   -0.8033 H       1  LIG1          0.12
     94 H          -0.0622   -3.1007   -2.9129 H       1  LIG1          0.14
     95 H           0.1308   -1.3716   -2.6366 H       1  LIG1       0.16000000000000003
     96 H           1.2330   -0.7262   -0.8119 H       1  LIG1       0.10999999999999999
     97 H           2.0723   -0.4547    2.8112 H       1  LIG1          0.13
     98 H           2.4540    0.2773    1.2637 H       1  LIG1       0.16000000000000003
     99 H           1.3567    2.2033    1.1686 H       1  LIG1       0.10999999999999999
    100 H          -1.1620    4.8046    0.9454 H       1  LIG1          0.14
    101 H           0.4001    4.2042    0.4161 H       1  LIG1       0.15000000000000002
    102 H           0.3387    2.3172   -1.3092 H       1  LIG1          0.12
    103 H          -0.3899    2.3899   -5.0338 H       1  LIG1          0.14
    104 H           0.5140    3.3902   -3.8976 H       1  LIG1          0.14
    105 H           2.2996    2.4159   -2.6486 H       1  LIG1          0.13
    106 H           3.0059   -0.5507   -3.0730 H       1  LIG1       0.15000000000000002
    107 H           4.1067    0.6568   -3.7157 H       1  LIG1       0.15000000000000002
    108 H           4.1497    2.7088   -1.5640 H       1  LIG1          0.14
    109 H           5.5990    0.7401    1.9750 H       1  LIG1          0.13
    110 H           5.3343    4.9980    0.6189 H       1  LIG1       0.43000000000000005
@<TRIPOS>BOND
     1    69     8    1
     2   103    27    1
     3     8    71    1
     4     8    70    1
     5     8    38    1
     6    27    38    1
     7    27   104    1
     8    27    15    1
     9    38    28    2
    10   107    29    1
    11    80    12    1
    12    86    15    1
    13    57     4    1
    14    28    29    1
    15    28   105    1
    16   106    29    1
    17    15    85    1
    18    15    26    1
    19    58     4    1
    20    29    39    1
    21    94    21    1
    22    95    21    1
    23     4    59    1
    24     4    34    1
    25    12    21    1
    26    12    79    1
    27    12    20    1
    28    21    35    1
    29    67     7    1
    30    26   102    1
    31    26    37    2
    32    39    30    2
    33    39    42    1
    34   108    30    1
    35    34    20    2
    36    34    19    1
    37    20    93    1
    38    91    19    1
    39    44    42    2
    40    30    40    1
    41    66     7    1
    42     7    37    1
    43     7    68    1
    44    42    41    1
    45    35     5    1
    46    35    22    2
    47    96    22    1
    48    37    25    1
    49    60     5    1
    50    19    92    1
    51    19    11    1
    52    62     5    1
    53     5    61    1
    54    22    13    1
    55    72     9    1
    56    52     2    1
    57    46   110    1
    58    46    43    1
    59    77    11    1
    60    51     2    1
    61    40    43    1
    62    40    31    1
    63   101    25    1
    64    41    31    2
    65    41    47    1
    66    11    78    1
    67    11    18    1
    68    73     9    1
    69    53     2    1
    70     2    32    1
    71    25   100    1
    72    25    14    1
    73     9    47    1
    74     9    74    1
    75    43    45    2
    76    31   109    1
    77    82    13    1
    78    13    81    1
    79    13    23    1
    80    90    18    1
    81    99    24    1
    82    98    23    1
    83    24    14    1
    84    24    36    2
    85    18    33    2
    86    14    83    1
    87    14    84    1
    88    65     6    1
    89    23    36    1
    90    23    97    1
    91    36     6    1
    92    32    16    2
    93    32     1    1
    94    87    16    1
    95    50     1    1
    96     6    64    1
    97     6    63    1
    98    48     1    1
    99    16    10    1
   100     1    49    1
   101    33     3    1
   102    33    17    1
   103    54     3    1
   104    89    17    1
   105     3    55    1
   106     3    56    1
   107    17    10    1
   108    17    88    1
   109    10    75    1
   110    10    76    1
