@<TRIPOS>MOLECULE
KYOBSHFOBAOFBF-XVFCMESISA-K	6044790	-1665.752595840571
 34 35 0 0 0
SMALL
MULLIKEN NwChem

@<TRIPOS>ATOM
      1 C           0.6128    0.9247    3.7112 C.ar    1  LIG1       -0.33000000000000007
      2 C          -1.0748   -1.0739   -2.8771 C.3     1  LIG1       -0.08999999999999986
      3 C           1.0891    0.5816    2.4880 C.ar    1  LIG1       0.2999999999999998
      4 C           0.0286   -1.0137   -1.8224 C.3     1  LIG1       0.1299999999999999
      5 C          -0.7239    0.5072    4.1631 C.ar    1  LIG1       0.5199999999999996
      6 C           0.3718   -2.3768   -1.1890 C.3     1  LIG1       0.09999999999999964
      7 C           1.0677   -1.9740    0.1258 C.3     1  LIG1       0.08000000000000007
      8 C           0.6660   -0.4852    0.3093 C.3     1  LIG1       0.28000000000000025
      9 C           2.5954    0.8283    2.1837 C.2     1  LIG1       0.5099999999999998
     10 C          -0.9445   -0.7849    2.1875 C.ar    1  LIG1       0.6699999999999999
     11 N          -1.4131   -0.3879    3.3863 N.ar    1  LIG1      -0.6600000000000001
     12 N           0.2450   -0.1392    1.6417 N.ar    1  LIG1      -0.5700000000000003
     13 O          -1.1748    0.9238    5.2582 O.2     1  LIG1      -0.6799999999999997
     14 O           1.1979   -3.1944   -2.0148 O.3     1  LIG1      -0.6899999999999995
     15 O           2.4804   -2.0971   -0.0439 O.3     1  LIG1      -0.7400000000000002
     16 O           3.2257   -0.0886    1.5543 O.co2   1  LIG1      -0.6400000000000006
     17 O           3.0940    1.8656    2.6611 O.co2   1  LIG1      -0.6300000000000008
     18 O          -1.4564   -1.6801    1.4889 O.2     1  LIG1      -0.6400000000000006
     19 O          -3.2727    0.9285   -3.3065 O.3     1  LIG1      -0.7100000000000009
     20 O          -1.0756    2.0879   -2.5172 O.3     1  LIG1        -0.75
     21 O          -1.6300    2.1069   -5.0109 O.2     1  LIG1      -0.6899999999999995
     22 O          -0.9619   -0.0789   -3.8824 O.3     1  LIG1      -0.5899999999999999
     23 O          -0.3307   -0.1974   -0.7019 O.3     1  LIG1      -0.5600000000000005
     24 P          -1.8873    1.3292   -3.7511 P.3     1  LIG1       1.0399999999999991
     25 H           1.2493    1.4884    4.3829 H       1  LIG1          0.12
     26 H          -0.9736   -2.0486   -3.3802 H       1  LIG1       0.16000000000000003
     27 H          -2.0548   -1.0360   -2.3828 H       1  LIG1       0.16000000000000003
     28 H           0.9428   -0.6232   -2.3046 H       1  LIG1          0.14
     29 H          -0.5548   -2.9165   -0.9688 H       1  LIG1       0.15000000000000002
     30 H           0.7194   -2.5701    0.9731 H       1  LIG1       0.15000000000000002
     31 H           1.5430    0.1195    0.0755 H       1  LIG1       0.17000000000000004
     32 H           2.0934   -2.9247   -1.7243 H       1  LIG1       0.43000000000000005
     33 H           2.8604   -1.3984    0.5665 H       1  LIG1       0.43999999999999995
     34 H          -1.0200    1.4953   -1.7413 H       1  LIG1       0.43999999999999995
@<TRIPOS>BOND
     1    21    24    2
     2    22    24    1
     3    22     2    1
     4    24    19    1
     5    24    20    1
     6    26     2    1
     7     2    27    1
     8     2     4    1
     9    20    34    1
    10    28     4    1
    11    14    32    1
    12    14     6    1
    13     4     6    1
    14     4    23    1
    15     6    29    1
    16     6     7    1
    17    23     8    1
    18    15     7    1
    19    15    33    1
    20    31     8    1
    21     7     8    1
    22     7    30    1
    23     8    12    1
    24    18    10    2
    25    16     9   ar
    26    12    10   ar
    27    12     3   ar
    28     9     3    1
    29     9    17   ar
    30    10    11   ar
    31     3     1   ar
    32    11     5   ar
    33     1     5   ar
    34     1    25    1
    35     5    13    2
