@<TRIPOS>MOLECULE
KZJWDPNRJALLNS-VJSFXXLFSA-N	6044791	-1209.8032820754697
 80 83 0 0 0
SMALL
MULLIKEN NwChem

@<TRIPOS>ATOM
      1 C           1.7175   -4.9175   -4.5970 C.3     1  LIG1      -0.45999999999999996
      2 C           0.8460   -3.3454   -0.5531 C.3     1  LIG1      -0.4800000000000004
      3 C           2.0742   -5.3454   -1.3761 C.3     1  LIG1      -0.46999999999999975
      4 C           4.4659   -0.1944   -0.4136 C.3     1  LIG1      -0.4800000000000004
      5 C          -3.3662    2.8127   -0.5468 C.3     1  LIG1      -0.4800000000000004
      6 C           3.2271    2.5881    0.5257 C.3     1  LIG1      -0.4800000000000004
      7 C           2.7049   -3.9550   -3.9231 C.3     1  LIG1      -0.2699999999999996
      8 C           2.4063   -0.6106   -1.8323 C.3     1  LIG1      -0.29000000000000004
      9 C           2.9043   -1.7602   -2.7374 C.3     1  LIG1      -0.29000000000000004
     10 C          -2.6149    2.1226    2.8852 C.2     1  LIG1      -0.23000000000000043
     11 C          -1.1372    2.3797    2.9346 C.3     1  LIG1      -0.3099999999999996
     12 C           2.4047    0.0280    2.0648 C.3     1  LIG1      -0.2999999999999998
     13 C           1.8242    1.2406    2.8431 C.3     1  LIG1      -0.2999999999999998
     14 C          -4.2556   -0.1710   -0.0928 C.3     1  LIG1      -0.29000000000000004
     15 C          -0.3343    1.8213   -0.8149 C.3     1  LIG1      -0.2999999999999998
     16 C          -2.8146    0.3591   -0.1751 C.3     1  LIG1      -0.29000000000000004
     17 C           1.1053    2.3289   -0.7519 C.3     1  LIG1      -0.28000000000000025
     18 C          -4.7303    1.3876    1.8217 C.3     1  LIG1      -0.3700000000000001
     19 C           2.0684   -3.8053   -1.3711 C.3     1  LIG1      -0.07000000000000028
     20 C           2.9705   -0.5581   -0.3929 C.3     1  LIG1      -0.08000000000000007
     21 C           2.1163   -3.0990   -2.7699 C.3     1  LIG1      -0.05999999999999961
     22 C          -3.2888    1.8383    1.7652 C.2     1  LIG1      0.16999999999999993
     23 C          -4.8346   -0.0619    1.3132 C.3     1  LIG1       0.15000000000000036
     24 C          -0.4185    1.7604    1.7254 C.3     1  LIG1      -0.11000000000000032
     25 C           2.0720    0.2678    0.5685 C.3     1  LIG1      -0.1200000000000001
     26 C           1.0944    2.1034    1.7819 C.3     1  LIG1      -0.08999999999999986
     27 C          -1.1268    2.2304    0.4384 C.3     1  LIG1      -0.09999999999999964
     28 C          -2.6388    1.8049    0.3793 C.3     1  LIG1      0.04999999999999982
     29 C           1.8902    1.8201    0.4709 C.3     1  LIG1      0.08999999999999986
     30 O          -6.1855   -0.5145    1.2473 O.3     1  LIG1      -0.6899999999999995
     31 H           1.3630   -5.7050   -3.9273 H       1  LIG1       0.15000000000000002
     32 H           2.1798   -5.4050   -5.4630 H       1  LIG1          0.14
     33 H           0.8371   -4.3689   -4.9569 H       1  LIG1          0.14
     34 H           0.7772   -2.2602   -0.4570 H       1  LIG1       0.16000000000000003
     35 H          -0.0766   -3.6918   -1.0369 H       1  LIG1          0.14
     36 H           0.8686   -3.7695    0.4585 H       1  LIG1          0.14
     37 H           2.9175   -5.7673   -1.9320 H       1  LIG1       0.15000000000000002
     38 H           2.1466   -5.7123   -0.3447 H       1  LIG1          0.14
     39 H           1.1478   -5.7538   -1.7962 H       1  LIG1       0.15000000000000002
     40 H           4.6573    0.7124   -0.9939 H       1  LIG1       0.15000000000000002
     41 H           4.8665   -0.0388    0.5933 H       1  LIG1       0.15000000000000002
     42 H           5.0505   -1.0005   -0.8703 H       1  LIG1          0.14
     43 H          -3.3533    3.8161   -0.1070 H       1  LIG1          0.14
     44 H          -2.8725    2.8657   -1.5228 H       1  LIG1       0.15000000000000002
     45 H          -4.4094    2.5419   -0.7269 H       1  LIG1       0.16000000000000003
     46 H           3.7480    2.5467   -0.4350 H       1  LIG1       0.15000000000000002
     47 H           3.0426    3.6461    0.7497 H       1  LIG1          0.14
     48 H           3.9091    2.2015    1.2886 H       1  LIG1       0.15000000000000002
     49 H           3.5956   -4.4967   -3.5778 H       1  LIG1          0.14
     50 H           3.0697   -3.2706   -4.6992 H       1  LIG1          0.13
     51 H           2.6686    0.3350   -2.3230 H       1  LIG1          0.14
     52 H           1.3089   -0.6316   -1.8102 H       1  LIG1          0.14
     53 H           3.9561   -1.9875   -2.5128 H       1  LIG1          0.13
     54 H           2.9050   -1.3779   -3.7660 H       1  LIG1          0.13
     55 H          -3.1525    2.1310    3.8336 H       1  LIG1          0.12
     56 H          -0.9305    3.4629    2.9605 H       1  LIG1          0.14
     57 H          -0.7295    1.9810    3.8723 H       1  LIG1       0.15000000000000002
     58 H           3.4856   -0.0463    2.2215 H       1  LIG1          0.14
     59 H           1.9821   -0.9262    2.3999 H       1  LIG1          0.13
     60 H           2.6277    1.8149    3.3172 H       1  LIG1          0.14
     61 H           1.1534    0.9276    3.6492 H       1  LIG1          0.14
     62 H          -4.9141    0.3866   -0.7702 H       1  LIG1          0.14
     63 H          -4.2923   -1.2171   -0.4180 H       1  LIG1          0.14
     64 H          -0.8183    2.2121   -1.7184 H       1  LIG1          0.13
     65 H          -0.3320    0.7319   -0.9196 H       1  LIG1       0.15000000000000002
     66 H          -2.1536   -0.3137    0.3885 H       1  LIG1          0.14
     67 H          -2.4871    0.3177   -1.2200 H       1  LIG1       0.15000000000000002
     68 H           1.0878    3.4288   -0.7067 H       1  LIG1          0.12
     69 H           1.6395    2.0760   -1.6740 H       1  LIG1          0.13
     70 H          -5.1080    1.4496    2.8510 H       1  LIG1       0.15000000000000002
     71 H          -5.3885    2.0067    1.1979 H       1  LIG1          0.14
     72 H           2.9791   -3.5024   -0.8334 H       1  LIG1          0.13
     73 H           2.9139   -1.5740    0.0206 H       1  LIG1          0.13
     74 H           1.0790   -2.8587   -3.0544 H       1  LIG1       0.10999999999999999
     75 H          -4.2451   -0.7043    1.9915 H       1  LIG1          0.12
     76 H          -0.5331    0.6684    1.7974 H       1  LIG1          0.13
     77 H           1.0684   -0.1484    0.4163 H       1  LIG1          0.14
     78 H           1.1706    3.1738    2.0175 H       1  LIG1       0.10999999999999999
     79 H          -1.1191    3.3325    0.4728 H       1  LIG1       0.10999999999999999
     80 H          -6.5573   -0.4583    2.1416 H       1  LIG1       0.42000000000000004
@<TRIPOS>BOND
     1    32     1    1
     2    33     1    1
     3    50     7    1
     4     1    31    1
     5     1     7    1
     6     7    49    1
     7     7    21    1
     8    54     9    1
     9    74    21    1
    10    21     9    1
    11    21    19    1
    12     9    53    1
    13     9     8    1
    14    51     8    1
    15    37     3    1
    16     8    52    1
    17     8    20    1
    18    39     3    1
    19    64    15    1
    20    69    17    1
    21    44     5    1
    22     3    19    1
    23     3    38    1
    24    19    72    1
    25    19     2    1
    26    67    16    1
    27    35     2    1
    28    40     4    1
    29    65    15    1
    30    42     4    1
    31    15    17    1
    32    15    27    1
    33    62    14    1
    34    17    68    1
    35    17    29    1
    36    45     5    1
    37     2    34    1
    38     2    36    1
    39     5    43    1
    40     5    28    1
    41    46     6    1
    42    63    14    1
    43     4    20    1
    44     4    41    1
    45    20    73    1
    46    20    25    1
    47    16    14    1
    48    16    28    1
    49    16    66    1
    50    14    23    1
    51    28    27    1
    52    28    22    1
    53    77    25    1
    54    27    79    1
    55    27    24    1
    56    29     6    1
    57    29    25    1
    58    29    26    1
    59     6    47    1
    60     6    48    1
    61    25    12    1
    62    71    18    1
    63    30    23    1
    64    30    80    1
    65    23    18    1
    66    23    75    1
    67    24    26    1
    68    24    76    1
    69    24    11    1
    70    22    18    1
    71    22    10    2
    72    26    78    1
    73    26    13    1
    74    18    70    1
    75    12    58    1
    76    12    59    1
    77    12    13    1
    78    13    60    1
    79    13    61    1
    80    10    11    1
    81    10    55    1
    82    11    56    1
    83    11    57    1
