@<TRIPOS>MOLECULE
KZSNJWFQEVHDMF-BYPYZUCNSA-N	6044793	-402.25193363947085
 19 18 0 0 0
SMALL
MULLIKEN NwChem

@<TRIPOS>ATOM
      1 CG1         1.7032    1.1437    0.1352 C.3     1  VAL1      -0.46999999999999975
      2 CG2         1.5575   -0.6554    1.9047 C.3     1  VAL1      -0.45999999999999996
      3 CB          1.1027   -0.2203    0.5060 C.3     1  VAL1      -0.07000000000000028
      4 CA         -0.4481   -0.2247    0.4217 C.3     1  VAL1       -0.040000000000000036
      5 C          -0.8884    0.2810   -0.9506 C.2     1  VAL1       0.5800000000000001
      6 N          -0.9631   -1.5714    0.6819 N.3     1  VAL1        -0.75
      7 O          -0.9183   -0.4031   -1.9521 O.2     1  VAL1      -0.5199999999999996
      8 OXT        -1.2385    1.5901   -0.9465 O.3     1  VAL1      -0.5800000000000001
      9 HG11        1.3120    1.9332    0.7887 H       1  VAL1       0.15000000000000002
     10 HG12        1.4853    1.4307   -0.8989 H       1  VAL1       0.16000000000000003
     11 HG13        2.7924    1.1205    0.2516 H       1  VAL1       0.16000000000000003
     12 HG21        1.2668    0.0937    2.6532 H       1  VAL1       0.15000000000000002
     13 HG22        1.1043   -1.6091    2.1843 H       1  VAL1       0.15000000000000002
     14 HG23        2.6486   -0.7554    1.9390 H       1  VAL1       0.15000000000000002
     15 HB          1.4535   -0.9627   -0.2264 H       1  VAL1          0.14
     16 HA         -0.8398    0.4562    1.1860 H       1  VAL1       0.17000000000000004
     17 H1         -1.9786   -1.5402    0.7619 H       1  VAL1       0.32999999999999996
     18 H2         -0.7689   -2.1453   -0.1397 H       1  VAL1       0.31999999999999995
     19 HXT        -1.4730    1.8168   -1.8673 H       1  VAL1       0.43999999999999995
@<TRIPOS>BOND
     1     7     5    2
     2    19     8    1
     3     5     8    1
     4     5     4    1
     5    10     1    1
     6    15     3    1
     7    18     6    1
     8     1    11    1
     9     1     3    1
    10     1     9    1
    11     4     3    1
    12     4     6    1
    13     4    16    1
    14     3     2    1
    15     6    17    1
    16     2    14    1
    17     2    13    1
    18     2    12    1
