@<TRIPOS>MOLECULE
LABSPYBHMPDTEL-LIZSDCNHSA-L	11095289	-1864.399163591787
 48 49 0 0 0
SMALL
MULLIKEN NwChem

@<TRIPOS>ATOM
      1 C          -4.7100   -1.1629    0.0813 C.3     1  LIG1       -0.08000000000000007
      2 C           3.1164    0.7468   -1.0471 C.3     1  LIG1       -0.05999999999999961
      3 C          -3.8224   -0.0216    0.5431 C.3     1  LIG1       0.09999999999999964
      4 C           1.9369    0.2448   -0.2257 C.3     1  LIG1       0.08999999999999986
      5 C          -4.5783    1.1582    1.2005 C.3     1  LIG1       0.08999999999999986
      6 C           2.2269   -1.0486    0.5556 C.3     1  LIG1       0.16999999999999993
      7 C          -3.9256    2.4964    0.7733 C.3     1  LIG1       0.08999999999999986
      8 C           0.9203   -1.4489    1.2823 C.3     1  LIG1       0.08999999999999986
      9 C          -2.3964    2.3392    0.7671 C.3     1  LIG1       0.05999999999999961
     10 C          -0.1475   -1.7485    0.2601 C.3     1  LIG1       0.11000000000000032
     11 C          -1.9997    1.2609   -0.2913 C.3     1  LIG1       0.34999999999999964
     12 C          -0.3512   -0.4911   -0.5969 C.3     1  LIG1       0.33000000000000007
     13 O          -5.5787   -0.7656   -0.9818 O.3     1  LIG1      -0.6699999999999999
     14 O          -4.6101    1.0120    2.6160 O.3     1  LIG1      -0.6899999999999995
     15 O           3.2228   -0.9949    1.4816 O.3     1  LIG1      -0.8000000000000007
     16 O          -4.3952    2.9432   -0.4980 O.3     1  LIG1      -0.6799999999999997
     17 O           1.2207   -2.5632    2.1038 O.3     1  LIG1      -0.7300000000000004
     18 O          -2.0012    1.9409    2.0812 O.3     1  LIG1      -0.6899999999999995
     19 O          -1.4034   -2.1639    0.8346 O.3     1  LIG1      -0.6699999999999999
     20 O           5.1050   -1.7812   -0.2496 O.3     1  LIG1      -0.7699999999999996
     21 O           5.8609   -1.3932   -2.6576 O.2     1  LIG1      -0.6999999999999993
     22 O           5.9984    0.5724   -0.8973 O.3     1  LIG1      -0.7300000000000004
     23 O           3.7265   -0.2571   -1.8193 O.3     1  LIG1      -0.6099999999999994
     24 O          -3.1402    0.4574   -0.6413 O.3     1  LIG1      -0.5500000000000007
     25 O           0.7972    0.0155   -1.1519 O.3     1  LIG1      -0.5299999999999994
     26 O          -0.9939    0.5068    0.2750 O.3     1  LIG1      -0.5399999999999991
     27 P           5.3453   -0.6816   -1.4375 P.3     1  LIG1       1.0299999999999994
     28 H          -5.3490   -1.4813    0.9119 H       1  LIG1       0.17000000000000004
     29 H          -4.0674   -2.0040   -0.2150 H       1  LIG1       0.15000000000000002
     30 H           2.7499    1.5529   -1.7097 H       1  LIG1          0.14
     31 H           3.8367    1.1908   -0.3490 H       1  LIG1       0.15000000000000002
     32 H          -3.0756   -0.4222    1.2349 H       1  LIG1       0.17000000000000004
     33 H           1.6298    1.0451    0.4669 H       1  LIG1          0.13
     34 H          -5.6180    1.1742    0.8563 H       1  LIG1       0.15000000000000002
     35 H           2.4014   -1.8161   -0.2331 H       1  LIG1       0.06000000000000005
     36 H          -4.2141    3.2601    1.5022 H       1  LIG1       0.16000000000000003
     37 H           0.5883   -0.6004    1.9122 H       1  LIG1       0.10999999999999999
     38 H          -1.9162    3.2902    0.4988 H       1  LIG1       0.16000000000000003
     39 H           0.2192   -2.5367   -0.4127 H       1  LIG1          0.14
     40 H          -1.6932    1.7176   -1.2397 H       1  LIG1       0.17000000000000004
     41 H          -1.0536   -0.6909   -1.4134 H       1  LIG1       0.17000000000000004
     42 H          -4.9848   -0.4136   -1.6652 H       1  LIG1       0.43000000000000005
     43 H          -3.6819    1.1600    2.8847 H       1  LIG1       0.42000000000000004
     44 H           4.5057   -1.4239    0.4823 H       1  LIG1       0.43000000000000005
     45 H          -4.2601    2.1814   -1.0886 H       1  LIG1       0.43000000000000005
     46 H           2.1959   -2.3431    2.2385 H       1  LIG1          0.39
     47 H          -1.2682    1.3047    1.9421 H       1  LIG1       0.44999999999999996
     48 H          -1.1290   -2.6960    1.6006 H       1  LIG1       0.43000000000000005
@<TRIPOS>BOND
     1    21    27    2
     2    23    27    1
     3    23     2    1
     4    30     2    1
     5    42    13    1
     6    27    22    1
     7    27    20    1
     8    41    12    1
     9    40    11    1
    10    25    12    1
    11    25     4    1
    12    45    16    1
    13     2    31    1
    14     2     4    1
    15    13     1    1
    16    24    11    1
    17    24     3    1
    18    12    10    1
    19    12    26    1
    20    16     7    1
    21    39    10    1
    22    11    26    1
    23    11     9    1
    24    20    44    1
    25    35     6    1
    26     4    33    1
    27     4     6    1
    28    29     1    1
    29     1     3    1
    30     1    28    1
    31    10    19    1
    32    10     8    1
    33    38     9    1
    34     3     5    1
    35     3    32    1
    36     6     8    1
    37     6    15    1
    38     9     7    1
    39     9    18    1
    40     7     5    1
    41     7    36    1
    42    19    48    1
    43    34     5    1
    44     5    14    1
    45     8    37    1
    46     8    17    1
    47    47    18    1
    48    17    46    1
    49    14    43    1
