@<TRIPOS>MOLECULE
LCCNCVORNKJIRZ-UHFFFAOYSA-N	6044797	-1559.685921590494
 32 32 0 0 0
SMALL
MULLIKEN NwChem

@<TRIPOS>ATOM
      1 C          -1.6000   -0.0037    3.7893 C.3     1  LIG1      -0.45999999999999996
      2 C           3.4822   -2.3427    2.9445 C.3     1  LIG1      -0.45999999999999996
      3 C          -1.6037    0.0818    2.2745 C.3     1  LIG1       -0.05999999999999961
      4 C           1.9672   -2.4227    2.9538 C.3     1  LIG1       -0.07000000000000028
      5 C          -2.1612    0.2814   -2.2018 C.ar    1  LIG1      -0.16999999999999993
      6 C          -0.2822    1.8149   -2.4873 C.ar    1  LIG1      -0.16000000000000014
      7 C          -1.3773   -0.5228   -1.3812 C.ar    1  LIG1      -0.16000000000000014
      8 C           0.4996    1.0090   -1.6659 C.ar    1  LIG1      -0.16000000000000014
      9 C          -1.6012    1.4392   -2.7426 C.ar    1  LIG1       0.29000000000000004
     10 C          -0.0549   -0.1523   -1.1241 C.ar    1  LIG1       0.33999999999999986
     11 N          -2.4299    2.2911   -3.6103 N.pl3   1  LIG1       0.3899999999999997
     12 O          -1.9092    3.2982   -4.0893 O.2     1  LIG1      -0.4299999999999997
     13 O          -3.5959    1.9466   -3.8051 O.2     1  LIG1      -0.4299999999999997
     14 O          -0.7628   -0.9630    1.7115 O.3     1  LIG1      -0.5299999999999994
     15 O           1.4526   -2.1576    1.6170 O.3     1  LIG1         -0.5
     16 O           0.7365   -0.9819   -0.3433 O.3     1  LIG1      -0.5700000000000003
     17 P           0.7761   -0.7514    1.2762 P.3     1  LIG1           1.0
     18 S           1.6227    0.8781    1.9035 S.3     1  LIG1       -0.46000000000000085
     19 H          -1.9029   -1.0028    4.1185 H       1  LIG1       0.17000000000000004
     20 H          -2.2997    0.7289    4.2073 H       1  LIG1       0.17000000000000004
     21 H          -0.6004    0.2133    4.1786 H       1  LIG1       0.17000000000000004
     22 H           3.8066   -1.3271    2.7011 H       1  LIG1       0.17000000000000004
     23 H           3.8762   -2.6120    3.9312 H       1  LIG1       0.17000000000000004
     24 H           3.8953   -3.0327    2.2022 H       1  LIG1       0.17000000000000004
     25 H          -2.5956   -0.1084    1.8558 H       1  LIG1       0.18999999999999995
     26 H          -1.2581    1.0602    1.9291 H       1  LIG1       0.18000000000000005
     27 H           1.5349   -1.7161    3.6705 H       1  LIG1       0.18999999999999995
     28 H           1.6083   -3.4254    3.1994 H       1  LIG1       0.18999999999999995
     29 H          -3.1891    0.0280   -2.4290 H       1  LIG1       0.19999999999999996
     30 H           0.1102    2.7233   -2.9268 H       1  LIG1       0.19999999999999996
     31 H          -1.7679   -1.4312   -0.9373 H       1  LIG1       0.19999999999999996
     32 H           1.5262    1.2650   -1.4316 H       1  LIG1       0.19999999999999996
@<TRIPOS>BOND
     1    12    11    2
     2    13    11    2
     3    11     9    1
     4    30     6    1
     5     9     6   ar
     6     9     5   ar
     7     6     8   ar
     8    29     5    1
     9     5     7   ar
    10     8    32    1
    11     8    10   ar
    12     7    10   ar
    13     7    31    1
    14    10    16    1
    15    16    17    1
    16    17    15    1
    17    17    14    1
    18    17    18    1
    19    15     4    1
    20    14     3    1
    21    25     3    1
    22    26     3    1
    23    24     2    1
    24     3     1    1
    25    22     2    1
    26     2     4    1
    27     2    23    1
    28     4    28    1
    29     4    27    1
    30     1    19    1
    31     1    21    1
    32     1    20    1
