@<TRIPOS>MOLECULE
LCTONWCANYUPML-UHFFFAOYSA-M	6044798	-341.90694758102137
 9 8 0 0 0
SMALL
MULLIKEN NwChem

@<TRIPOS>ATOM
      1 C           0.8804   -1.6519   -0.1272 C.3     1  LIG1             -0.54
      2 C           0.3916   -0.3318    0.4880 C.2     1  LIG1       0.3600000000000003
      3 C          -0.5186    0.5959   -0.4298 C.2     1  LIG1       0.46999999999999975
      4 O           0.7103   -0.0478    1.6316 O.2     1  LIG1      -0.5099999999999998
      5 O          -0.8857    1.6652    0.0965 O.co2   1  LIG1      -0.6500000000000004
      6 O          -0.7444    0.1149   -1.5730 O.co2   1  LIG1      -0.6500000000000004
      7 H           0.5063   -1.7556   -1.1453 H       1  LIG1       0.17000000000000004
      8 H           0.5402   -2.4890    0.4974 H       1  LIG1       0.18000000000000005
      9 H           1.9787   -1.6692   -0.1153 H       1  LIG1       0.18000000000000005
@<TRIPOS>BOND
     1     6     3   ar
     2     7     1    1
     3     3     5   ar
     4     3     2    1
     5     1     9    1
     6     1     2    1
     7     1     8    1
     8     2     4    2
