@<TRIPOS>MOLECULE
LDHMAVIPBRSVRG-UHFFFAOYSA-O	6044799	-456.61221000138056
 19 19 0 0 0
SMALL
MULLIKEN NwChem

@<TRIPOS>ATOM
      1 C           0.7413    0.5639    3.0217 C.3     1  LIG1       -0.34999999999999964
      2 C          -0.0598    2.1326   -0.2720 C.2     1  LIG1      -0.16999999999999993
      3 C          -0.2454    1.0099   -1.0789 C.3     1  LIG1       -0.08000000000000007
      4 C           0.2463    1.9666    1.0669 C.2     1  LIG1      0.1299999999999999
      5 C           0.1896   -0.3763    0.8238 C.2     1  LIG1       0.11000000000000032
      6 C          -0.1214   -0.2749   -0.5262 C.2     1  LIG1       0.040000000000000036
      7 C          -0.3154   -1.5071   -1.3629 C.2     1  LIG1       0.4900000000000002
      8 N          -0.3170   -2.7256   -1.0109 N.2     1  LIG1      -0.6799999999999997
      9 N           0.3646    0.7219    1.5924 N.pl3   1  LIG1      -0.3899999999999997
     10 O          -0.5068   -1.1602   -2.6511 O.2     1  LIG1      -0.6099999999999994
     11 H           0.3277   -0.3712    3.3994 H       1  LIG1       0.22999999999999998
     12 H           0.3286    1.3958    3.5929 H       1  LIG1          0.24
     13 H           1.8306    0.5542    3.1048 H       1  LIG1       0.22999999999999998
     14 H          -0.1522    3.1353   -0.6736 H       1  LIG1       0.22999999999999998
     15 H          -0.4856    1.1154   -2.1303 H       1  LIG1       0.22999999999999998
     16 H           0.4050    2.7960    1.7456 H       1  LIG1          0.26
     17 H           0.3130   -1.3279    1.3262 H       1  LIG1          0.26
     18 H          -0.1764   -2.8968   -0.0172 H       1  LIG1          0.35
     19 H          -0.6364   -1.9841   -3.1591 H       1  LIG1       0.44999999999999996
@<TRIPOS>BOND
     1    19    10    1
     2    10     7    1
     3    15     3    1
     4     7     8    2
     5     7     6    1
     6     3     6    1
     7     3     2    1
     8     8    18    1
     9    14     2    1
    10     6     5    2
    11     2     4    2
    12     5    17    1
    13     5     9    1
    14     4     9    1
    15     4    16    1
    16     9     1    1
    17     1    13    1
    18     1    11    1
    19     1    12    1
