@<TRIPOS>MOLECULE
LEHOTFFKMJEONL-UHFFFAOYSA-N	6044800	-637.5765696992192
 16 17 0 0 0
SMALL
MULLIKEN NwChem

@<TRIPOS>ATOM
      1 C          -0.3496   -0.5959   -0.0006 C.ar    1  LIG1       0.20000000000000018
      2 C          -0.2750    0.8103    0.0007 C.ar    1  LIG1       0.5499999999999998
      3 C           0.8922   -1.2351    0.0004 C.ar    1  LIG1       0.4900000000000002
      4 C          -2.3537    0.0797   -0.0039 C.ar    1  LIG1       0.7199999999999998
      5 C           1.9234    0.8252    0.0050 C.ar    1  LIG1       0.6399999999999997
      6 N          -1.6740   -1.0313   -0.0035 N.ar    1  LIG1      -0.6100000000000003
      7 N          -1.5905    1.2281   -0.0017 N.ar    1  LIG1      -0.7000000000000002
      8 N           0.8188    1.5689    0.0035 N.ar    1  LIG1      -0.5800000000000001
      9 N           2.0204   -0.5172    0.0034 N.ar    1  LIG1      -0.5999999999999996
     10 O           0.9891   -2.5733   -0.0020 O.3     1  LIG1      -0.6300000000000008
     11 O          -3.6881    0.2071   -0.0059 O.3     1  LIG1      -0.6300000000000008
     12 O           3.0856    1.5081    0.0084 O.3     1  LIG1      -0.6300000000000008
     13 H          -1.9262    2.1801   -0.0016 H       1  LIG1          0.39
     14 H           1.9420   -2.7774   -0.0018 H       1  LIG1       0.44999999999999996
     15 H          -4.0498   -0.6964   -0.0055 H       1  LIG1          0.47
     16 H           3.7919    0.8398    0.0095 H       1  LIG1       0.44999999999999996
@<TRIPOS>BOND
     1    11    15    1
     2    11     4    1
     3     4     6   ar
     4     4     7   ar
     5     6     1   ar
     6    10    14    1
     7    10     3    1
     8     7    13    1
     9     7     2   ar
    10     1     3   ar
    11     1     2   ar
    12     3     9   ar
    13     2     8   ar
    14     9     5   ar
    15     8     5   ar
    16     5    12    1
    17    12    16    1
