@<TRIPOS>MOLECULE
LELOWRISYMNNSU-UHFFFAOYSA-N	6044801	-93.43134976844145
 3 2 0 0 0
SMALL
MULLIKEN NwChem

@<TRIPOS>ATOM
      1 C           0.4977    0.0000    0.0000 C.1     1  LIG1       0.1299999999999999
      2 N          -0.6595   -0.0000   -0.0000 N.1     1  LIG1      -0.4400000000000004
      3 H           1.5684   -0.0000   -0.0000 H       1  LIG1       0.31000000000000005
@<TRIPOS>BOND
     1     1     2    3
     2     1     3    1
