@<TRIPOS>MOLECULE
LEUVIESGHNFBEK-WKYRUEGDSA-N	6044802	-1283.8197918949127
 79 82 0 0 0
SMALL
MULLIKEN NwChem

@<TRIPOS>ATOM
      1 C           5.1171   -4.1238   -4.3256 C.3     1  LIG1      -0.5300000000000002
      2 C           5.2435   -1.8966   -5.5385 C.3     1  LIG1      -0.5199999999999996
      3 C          -0.2610   -2.2822   -4.2355 C.3     1  LIG1      -0.4800000000000004
      4 C           0.5434    0.2152   -2.0917 C.3     1  LIG1      -0.4900000000000002
      5 C          -3.2621    0.8496    2.4484 C.3     1  LIG1         -0.5
      6 C          -0.2407    3.7806    4.6426 C.3     1  LIG1      -0.46999999999999975
      7 C           2.0741   -4.1331   -4.9083 C.3     1  LIG1      -0.3200000000000003
      8 C           3.0608   -3.0723   -5.3343 C.2     1  LIG1      -0.1900000000000004
      9 C           1.5234   -3.9102   -3.4807 C.3     1  LIG1      -0.2599999999999998
     10 C           0.5099    0.1815    2.4929 C.3     1  LIG1      -0.34999999999999964
     11 C           1.3470   -2.9331   -0.6968 C.3     1  LIG1      -0.29000000000000004
     12 C           0.8240   -2.3155    0.6010 C.3     1  LIG1      -0.28000000000000025
     13 C          -0.3177    0.9140    3.5497 C.3     1  LIG1      -0.29000000000000004
     14 C          -2.0313    0.4214   -0.4725 C.3     1  LIG1      -0.3600000000000003
     15 C          -3.0681    3.9868    1.9608 C.3     1  LIG1      -0.29000000000000004
     16 C          -1.5602   -0.8548   -1.1654 C.3     1  LIG1      -0.2999999999999998
     17 C          -2.5673    2.8532    1.0558 C.3     1  LIG1      -0.3099999999999996
     18 C          -2.5591    2.9421    4.8952 C.3     1  LIG1       -0.07000000000000028
     19 C           4.3778   -3.0454   -5.0802 C.2     1  LIG1      0.17999999999999972
     20 C           0.8810   -2.5283   -3.2339 C.3     1  LIG1      -0.07000000000000028
     21 C          -0.1994    0.0106    1.1644 C.2     1  LIG1      0.08999999999999986
     22 C           0.3815   -2.3973   -1.7764 C.3     1  LIG1      -0.09999999999999964
     23 C           0.5646   -0.8549    0.1797 C.3     1  LIG1      -0.17999999999999972
     24 C          -1.3509    0.6441    0.8656 C.2     1  LIG1      0.07000000000000028
     25 C          -1.0206    2.1140    2.8970 C.3     1  LIG1      -0.15000000000000036
     26 C          -2.0029    4.4460    2.9669 C.3     1  LIG1       0.1200000000000001
     27 C          -0.0265   -0.9510   -1.2643 C.3     1  LIG1      0.1200000000000001
     28 C          -2.0571    1.6118    1.8391 C.3     1  LIG1      0.05999999999999961
     29 C          -1.4654    3.2774    3.8487 C.3     1  LIG1       0.05999999999999961
     30 O          -2.2614    1.8273    5.7278 O.3     1  LIG1      -0.6699999999999999
     31 O          -0.9526    5.1515    2.2980 O.3     1  LIG1      -0.6899999999999995
     32 H           5.9382   -4.5316   -4.9316 H       1  LIG1       0.16000000000000003
     33 H           4.4761   -4.9548   -4.0208 H       1  LIG1       0.16000000000000003
     34 H           5.5784   -3.7088   -3.4182 H       1  LIG1       0.16000000000000003
     35 H           4.6662   -1.1305   -6.0663 H       1  LIG1       0.16000000000000003
     36 H           5.7463   -1.4174   -4.6864 H       1  LIG1       0.16000000000000003
     37 H           6.0399   -2.2464   -6.2106 H       1  LIG1       0.16000000000000003
     38 H          -0.9952   -3.0974   -4.1855 H       1  LIG1          0.14
     39 H          -0.7940   -1.3499   -4.0338 H       1  LIG1       0.16000000000000003
     40 H           0.1070   -2.2286   -5.2655 H       1  LIG1       0.15000000000000002
     41 H           1.6236    0.1049   -2.2372 H       1  LIG1       0.15000000000000002
     42 H           0.0788    0.3065   -3.0784 H       1  LIG1       0.15000000000000002
     43 H           0.3871    1.1610   -1.5610 H       1  LIG1          0.14
     44 H          -2.9331    0.0052    3.0621 H       1  LIG1       0.16000000000000003
     45 H          -3.9096    1.4868    3.0543 H       1  LIG1       0.15000000000000002
     46 H          -3.8875    0.4323    1.6525 H       1  LIG1       0.16000000000000003
     47 H          -0.0020    3.0926    5.4580 H       1  LIG1       0.15000000000000002
     48 H           0.6398    3.8978    4.0045 H       1  LIG1       0.15000000000000002
     49 H          -0.4554    4.7617    5.0811 H       1  LIG1          0.14
     50 H           1.2459   -4.1640   -5.6263 H       1  LIG1          0.14
     51 H           2.5348   -5.1279   -4.9430 H       1  LIG1          0.14
     52 H           2.6357   -2.2217   -5.8684 H       1  LIG1          0.12
     53 H           0.7880   -4.6969   -3.2530 H       1  LIG1          0.12
     54 H           2.3581   -4.0480   -2.7843 H       1  LIG1          0.14
     55 H           0.8164   -0.7999    2.8773 H       1  LIG1       0.15000000000000002
     56 H           1.4504    0.7299    2.3167 H       1  LIG1          0.14
     57 H           1.3840   -4.0265   -0.6687 H       1  LIG1          0.14
     58 H           2.3700   -2.5765   -0.8877 H       1  LIG1          0.13
     59 H           1.5277   -2.4075    1.4345 H       1  LIG1          0.14
     60 H          -0.1158   -2.7965    0.9051 H       1  LIG1          0.13
     61 H           0.3235    1.2260    4.3770 H       1  LIG1          0.14
     62 H          -1.0449    0.2147    3.9769 H       1  LIG1          0.14
     63 H          -1.8693    1.2898   -1.1269 H       1  LIG1       0.15000000000000002
     64 H          -3.1191    0.3670   -0.3373 H       1  LIG1       0.15000000000000002
     65 H          -3.3509    4.8504    1.3481 H       1  LIG1          0.14
     66 H          -3.9735    3.6724    2.4931 H       1  LIG1       0.15000000000000002
     67 H          -2.0104   -0.9334   -2.1629 H       1  LIG1          0.13
     68 H          -1.9256   -1.7148   -0.5878 H       1  LIG1          0.13
     69 H          -3.3646    2.5700    0.3603 H       1  LIG1       0.15000000000000002
     70 H          -1.7454    3.2306    0.4296 H       1  LIG1          0.14
     71 H          -2.6399    3.7973    5.5763 H       1  LIG1       0.15000000000000002
     72 H          -3.5452    2.8232    4.4316 H       1  LIG1       0.15000000000000002
     73 H           1.6648   -1.7792   -3.4060 H       1  LIG1          0.12
     74 H          -0.5244   -3.0194   -1.7098 H       1  LIG1          0.12
     75 H           1.5639   -0.3947    0.0902 H       1  LIG1          0.13
     76 H          -0.2312    2.5834    2.2840 H       1  LIG1          0.12
     77 H          -2.4379    5.2038    3.6308 H       1  LIG1          0.13
     78 H          -2.4009    1.0276    5.2010 H       1  LIG1       0.43000000000000005
     79 H          -0.5049    4.5310    1.7028 H       1  LIG1       0.42000000000000004
@<TRIPOS>BOND
     1    37     2    1
     2    35     2    1
     3    52     8    1
     4    50     7    1
     5     2    19    1
     6     2    36    1
     7     8    19    2
     8     8     7    1
     9    40     3    1
    10    19     1    1
    11    51     7    1
    12    32     1    1
    13     7     9    1
    14     1    33    1
    15     1    34    1
    16     3    38    1
    17     3    39    1
    18     3    20    1
    19     9    53    1
    20     9    20    1
    21     9    54    1
    22    73    20    1
    23    20    22    1
    24    42     4    1
    25    41     4    1
    26    67    16    1
    27     4    43    1
    28     4    27    1
    29    22    74    1
    30    22    27    1
    31    22    11    1
    32    27    16    1
    33    27    23    1
    34    16    68    1
    35    16    14    1
    36    63    14    1
    37    58    11    1
    38    11    57    1
    39    11    12    1
    40    14    64    1
    41    14    24    1
    42    75    23    1
    43    23    12    1
    44    23    21    1
    45    69    17    1
    46    70    17    1
    47    12    60    1
    48    12    59    1
    49    24    21    2
    50    24    28    1
    51    17    28    1
    52    17    15    1
    53    21    10    1
    54    65    15    1
    55    46     5    1
    56    79    31    1
    57    28     5    1
    58    28    25    1
    59    15    66    1
    60    15    26    1
    61    76    25    1
    62    31    26    1
    63    56    10    1
    64     5    45    1
    65     5    44    1
    66    10    55    1
    67    10    13    1
    68    25    13    1
    69    25    29    1
    70    26    77    1
    71    26    29    1
    72    13    62    1
    73    13    61    1
    74    29     6    1
    75    29    18    1
    76    48     6    1
    77    72    18    1
    78     6    49    1
    79     6    47    1
    80    18    71    1
    81    18    30    1
    82    78    30    1
