@<TRIPOS>MOLECULE
LFLUCDOSQPJJBE-UHFFFAOYSA-K	6044803	-983.8951617044644
 13 12 0 0 0
SMALL
MULLIKEN NwChem

@<TRIPOS>ATOM
      1 C          -0.0862   -0.2069    0.4451 C.3     1  LIG1       -0.08999999999999986
      2 C          -0.4769    0.7285    1.5940 C.2     1  LIG1       0.3600000000000003
      3 C          -1.5908    0.2268    2.5697 C.2     1  LIG1       0.4500000000000002
      4 O           0.0291    1.8363    1.7879 O.2     1  LIG1      -0.5500000000000007
      5 O          -2.7750    0.5396    2.2597 O.co2   1  LIG1      -0.6600000000000001
      6 O          -1.1878   -0.3986    3.5909 O.co2   1  LIG1      -0.6600000000000001
      7 O           1.8513   -2.1034   -1.0094 O.3     1  LIG1      -0.8000000000000007
      8 O           0.0334   -1.0121   -2.5192 O.2     1  LIG1      -0.8000000000000007
      9 O           2.4396   -0.0062   -2.4457 O.3     1  LIG1      -0.7799999999999994
     10 O           0.9032    0.2650   -0.3996 O.3     1  LIG1      -0.6400000000000006
     11 P           1.3554   -0.8419   -1.7443 P.3     1  LIG1       0.9000000000000004
     12 H          -1.0325   -0.4327   -0.0950 H       1  LIG1          0.13
     13 H           0.1900   -1.1730    0.9233 H       1  LIG1           0.13
@<TRIPOS>BOND
     1     8    11    2
     2     9    11    1
     3    11     7    1
     4    11    10    1
     5    10     1    1
     6    12     1    1
     7     1    13    1
     8     1     2    1
     9     2     4    2
    10     2     3    1
    11     5     3   ar
    12     3     6   ar
