@<TRIPOS>MOLECULE
LFQSCWFLJHTTHZ-UHFFFAOYSA-N	6044804	-154.9853704843016
 9 8 0 0 0
SMALL
MULLIKEN NwChem

@<TRIPOS>ATOM
      1 C           0.1419   -0.8331    0.9008 C.3     1  LIG1      -0.46999999999999975
      2 C          -0.3359    0.4248    0.1786 C.3     1  LIG1       -0.040000000000000036
      3 O           0.0902    0.4702   -1.1803 O.3     1  LIG1      -0.6699999999999999
      4 H          -0.2093   -1.7293    0.3787 H       1  LIG1       0.15000000000000002
      5 H          -0.2246   -0.8625    1.9341 H       1  LIG1       0.15000000000000002
      6 H           1.2390   -0.8680    0.9361 H       1  LIG1       0.16000000000000003
      7 H          -1.4302    0.4494    0.1389 H       1  LIG1       0.15000000000000002
      8 H          -0.0130    1.3250    0.7285 H       1  LIG1          0.14
      9 H           1.0602    0.4675   -1.1802 H       1  LIG1       0.42000000000000004
@<TRIPOS>BOND
     1     3     9    1
     2     3     2    1
     3     7     2    1
     4     2     8    1
     5     2     1    1
     6     4     1    1
     7     1     6    1
     8     1     5    1
