@<TRIPOS>MOLECULE
LFQXEZVYNCBVDO-PBJLWWPKSA-N	6044805	-1207.4053480825391
 76 79 0 0 0
SMALL
MULLIKEN NwChem

@<TRIPOS>ATOM
      1 C          -2.2046   -6.7367   -1.8393 C.3     1  LIG1      -0.5300000000000002
      2 C          -3.4228   -4.5921   -1.2113 C.3     1  LIG1      -0.5199999999999996
      3 C           2.3838   -3.7507    1.8432 C.3     1  LIG1      -0.4800000000000004
      4 C          -0.7578    4.7310   -2.4697 C.3     1  LIG1      -0.5099999999999998
      5 C          -0.0897    6.2427   -0.6572 C.3     1  LIG1      -0.4800000000000004
      6 C          -0.3054   -1.3862    1.7808 C.3     1  LIG1      -0.4900000000000002
      7 C          -0.8976    3.1135    2.4048 C.3     1  LIG1      -0.4800000000000004
      8 C          -0.0904   -5.9552    0.3653 C.3     1  LIG1      -0.33000000000000007
      9 C          -1.3711   -5.2443    0.0204 C.2     1  LIG1      -0.17999999999999972
     10 C           1.1728   -5.1070    0.0591 C.3     1  LIG1      -0.2699999999999996
     11 C          -1.2340    1.6424   -1.1963 C.3     1  LIG1      -0.34999999999999964
     12 C           0.3214   -2.5584   -1.3118 C.3     1  LIG1      -0.33999999999999986
     13 C          -0.1459   -1.1456   -1.5135 C.2     1  LIG1      -0.2400000000000002
     14 C          -1.9183    2.8751   -0.6104 C.3     1  LIG1      -0.29000000000000004
     15 C           1.4110    1.1116    1.6461 C.3     1  LIG1      -0.3600000000000003
     16 C           2.0795    4.2904    0.1804 C.3     1  LIG1      -0.29000000000000004
     17 C           1.9054   -0.2825    1.2142 C.3     1  LIG1      -0.29000000000000004
     18 C           1.1584    4.0933    1.3946 C.3     1  LIG1      -0.2999999999999998
     19 C          -2.2667   -5.5291   -0.9358 C.2     1  LIG1      0.16999999999999993
     20 C           1.2121   -3.7640    0.8510 C.3     1  LIG1      -0.08000000000000007
     21 C          -0.2148    1.0438   -0.2545 C.2     1  LIG1      0.08000000000000007
     22 C           1.2110   -2.4867   -0.0327 C.3     1  LIG1      -0.11000000000000032
     23 C           0.1093   -0.3692   -0.4506 C.2     1  LIG1      0.09999999999999964
     24 C           0.3627    1.7537    0.7431 C.2     1  LIG1      0.07000000000000028
     25 C          -0.9342    3.8938   -0.0094 C.3     1  LIG1      -0.1200000000000001
     26 C           1.3327    4.2000   -1.1563 C.3     1  LIG1       0.1299999999999999
     27 C          -0.1136    4.7497   -1.0641 C.3     1  LIG1      0.09999999999999964
     28 C           0.7585   -1.1536    0.6802 C.3     1  LIG1      0.040000000000000036
     29 C          -0.0613    3.1915    1.1013 C.3     1  LIG1      0.03000000000000025
     30 O           2.1391    4.9013   -2.1130 O.3     1  LIG1      -0.6899999999999995
     31 H          -3.1890   -7.2239   -1.9036 H       1  LIG1       0.16000000000000003
     32 H          -1.4846   -7.4898   -1.5037 H       1  LIG1       0.16000000000000003
     33 H          -1.9336   -6.4415   -2.8644 H       1  LIG1       0.16000000000000003
     34 H          -3.3507   -3.6663   -0.6291 H       1  LIG1       0.16000000000000003
     35 H          -3.4438   -4.3138   -2.2753 H       1  LIG1       0.16000000000000003
     36 H          -4.3904   -5.0630   -0.9941 H       1  LIG1       0.16000000000000003
     37 H           3.3451   -3.7371    1.3182 H       1  LIG1          0.14
     38 H           2.3475   -2.8707    2.4938 H       1  LIG1       0.15000000000000002
     39 H           2.3687   -4.6378    2.4873 H       1  LIG1          0.14
     40 H          -1.7910    5.0859   -2.4358 H       1  LIG1       0.15000000000000002
     41 H          -0.2140    5.4101   -3.1351 H       1  LIG1          0.14
     42 H          -0.7601    3.7403   -2.9334 H       1  LIG1       0.16000000000000003
     43 H           0.3257    6.4230    0.3360 H       1  LIG1       0.15000000000000002
     44 H           0.5148    6.8068   -1.3742 H       1  LIG1          0.14
     45 H          -1.1079    6.6490   -0.6679 H       1  LIG1          0.14
     46 H          -1.1240   -2.0070    1.4047 H       1  LIG1       0.15000000000000002
     47 H           0.1157   -1.8727    2.6690 H       1  LIG1       0.15000000000000002
     48 H          -0.7407   -0.4356    2.0971 H       1  LIG1       0.15000000000000002
     49 H          -1.7818    2.4823    2.2859 H       1  LIG1       0.15000000000000002
     50 H          -0.3065    2.7015    3.2298 H       1  LIG1       0.15000000000000002
     51 H          -1.2276    4.1148    2.7092 H       1  LIG1       0.15000000000000002
     52 H          -0.0871   -6.1949    1.4423 H       1  LIG1          0.14
     53 H          -0.0160   -6.9128   -0.1617 H       1  LIG1          0.14
     54 H          -1.5578   -4.3421    0.6032 H       1  LIG1          0.14
     55 H           2.0519   -5.7084    0.3133 H       1  LIG1          0.13
     56 H           1.2253   -4.9368   -1.0231 H       1  LIG1          0.14
     57 H          -1.9881    0.8869   -1.4388 H       1  LIG1          0.14
     58 H          -0.7428    1.8749   -2.1495 H       1  LIG1       0.16000000000000003
     59 H           0.8773   -2.9424   -2.1787 H       1  LIG1          0.14
     60 H          -0.5298   -3.2436   -1.1858 H       1  LIG1       0.16000000000000003
     61 H          -0.6503   -0.8220   -2.4187 H       1  LIG1          0.13
     62 H          -2.5937    2.5423    0.1883 H       1  LIG1          0.14
     63 H          -2.5587    3.3488   -1.3578 H       1  LIG1          0.14
     64 H           2.2894    1.7677    1.7198 H       1  LIG1       0.16000000000000003
     65 H           1.0114    1.0598    2.6694 H       1  LIG1       0.16000000000000003
     66 H           2.8847    3.5465    0.1773 H       1  LIG1       0.15000000000000002
     67 H           2.5632    5.2724    0.2369 H       1  LIG1          0.14
     68 H           2.4183   -0.7629    2.0561 H       1  LIG1          0.14
     69 H           2.6486   -0.1640    0.4151 H       1  LIG1          0.13
     70 H           0.7638    5.0587    1.7293 H       1  LIG1          0.14
     71 H           1.7333    3.7069    2.2424 H       1  LIG1          0.14
     72 H           0.2989   -3.7383    1.4550 H       1  LIG1          0.14
     73 H           2.2443   -2.3236   -0.3800 H       1  LIG1          0.12
     74 H          -1.5529    4.6235    0.5300 H       1  LIG1          0.13
     75 H           1.2648    3.1437   -1.4493 H       1  LIG1          0.13
     76 H           1.8423    4.6293   -2.9935 H       1  LIG1       0.42000000000000004
@<TRIPOS>BOND
     1    41     4    1
     2    76    30    1
     3    42     4    1
     4    33     1    1
     5     4    40    1
     6     4    27    1
     7    61    13    1
     8    35     2    1
     9    59    12    1
    10    58    11    1
    11    30    26    1
    12    31     1    1
    13     1    32    1
    14     1    19    1
    15    13    12    1
    16    13    23    2
    17    75    26    1
    18    57    11    1
    19    44     5    1
    20    63    14    1
    21    12    60    1
    22    12    22    1
    23     2    36    1
    24     2    19    1
    25     2    34    1
    26    11    14    1
    27    11    21    1
    28    26    27    1
    29    26    16    1
    30    27     5    1
    31    27    25    1
    32    56    10    1
    33    19     9    2
    34    45     5    1
    35     5    43    1
    36    14    25    1
    37    14    62    1
    38    23    21    1
    39    23    28    1
    40    73    22    1
    41    21    24    2
    42    53     8    1
    43    22    28    1
    44    22    20    1
    45    25    74    1
    46    25    29    1
    47     9     8    1
    48     9    54    1
    49    10    55    1
    50    10     8    1
    51    10    20    1
    52    66    16    1
    53    16    67    1
    54    16    18    1
    55     8    52    1
    56    69    17    1
    57    28    17    1
    58    28     6    1
    59    24    29    1
    60    24    15    1
    61    20    72    1
    62    20     3    1
    63    29    18    1
    64    29     7    1
    65    17    15    1
    66    17    68    1
    67    37     3    1
    68    18    70    1
    69    18    71    1
    70    46     6    1
    71    15    64    1
    72    15    65    1
    73     6    48    1
    74     6    47    1
    75     3    39    1
    76     3    38    1
    77    49     7    1
    78     7    51    1
    79     7    50    1
