@<TRIPOS>MOLECULE
LFTYTUAZOPRMMI-CFRASDGPSA-L	11095287	-2788.724341267524
 64 66 0 0 0
SMALL
MULLIKEN NwChem

@<TRIPOS>ATOM
      1 C          -1.2599   -0.3702   -2.9282 C.3     1  LIG1       -0.5700000000000003
      2 C           7.2783    0.9936    0.6006 C.ar    1  LIG1       -0.2999999999999998
      3 C           6.0959    1.0361   -0.0515 C.ar    1  LIG1       0.08999999999999986
      4 C          -6.4984    0.0133    2.9144 C.3     1  LIG1       -0.040000000000000036
      5 C           2.3379    1.6567    0.3730 C.3     1  LIG1       -0.05999999999999961
      6 C          -2.6432   -0.7990   -2.4703 C.2     1  LIG1       0.5999999999999996
      7 C          -5.6591   -0.1369    1.6605 C.3     1  LIG1       0.040000000000000036
      8 C           2.6108    0.8276   -0.8848 C.3     1  LIG1       0.09999999999999964
      9 C           8.3771    0.1547    0.0810 C.ar    1  LIG1       0.5099999999999998
     10 C          -3.8954   -1.3099   -0.3242 C.3     1  LIG1       0.03000000000000025
     11 C          -6.2695   -0.6816    0.3781 C.3     1  LIG1       0.15000000000000036
     12 C           2.9000   -0.6717   -0.6589 C.3     1  LIG1       0.08000000000000007
     13 C          -5.2083   -0.6027   -0.7385 C.3     1  LIG1       0.08999999999999986
     14 C           3.8367   -0.9666   -1.8451 C.3     1  LIG1       0.08999999999999986
     15 C           4.6520    0.3255   -1.9624 C.3     1  LIG1       0.28000000000000025
     16 C          -3.5063   -0.9152    1.1127 C.3     1  LIG1       0.29000000000000004
     17 C           6.9801   -0.5150   -1.7264 C.ar    1  LIG1       0.6799999999999997
     18 N          -2.7195   -1.0334   -1.1447 N.am    1  LIG1      -0.6699999999999999
     19 N           8.1527   -0.5518   -1.0769 N.ar    1  LIG1      -0.6600000000000001
     20 N           5.8934    0.2883   -1.1818 N.ar    1  LIG1      -0.5099999999999998
     21 O          -5.7102    0.5688    3.9691 O.3     1  LIG1      -0.6699999999999999
     22 O          -3.5953   -0.8840   -3.2698 O.2     1  LIG1      -0.5999999999999996
     23 O           9.4667    0.1168    0.6875 O.2     1  LIG1      -0.6799999999999997
     24 O          -7.4106    0.0775    0.0024 O.3     1  LIG1      -0.6899999999999995
     25 O           1.7757   -1.5304   -0.7611 O.3     1  LIG1      -0.7200000000000006
     26 O          -5.8207   -1.1826   -1.8751 O.3     1  LIG1      -0.7200000000000006
     27 O           3.0448   -1.1132   -3.0195 O.3     1  LIG1      -0.6999999999999993
     28 O           6.7061   -1.1220   -2.7796 O.2     1  LIG1      -0.6600000000000001
     29 O          -0.4837   -0.5442    0.4965 O.3     1  LIG1      -0.7100000000000009
     30 O          -0.5095    1.9085   -0.4549 O.2     1  LIG1      -0.6500000000000004
     31 O          -2.4252   -0.0133    3.5392 O.3     1  LIG1      -0.6799999999999997
     32 O          -3.3739    2.2929    2.8313 O.2     1  LIG1      -0.5999999999999996
     33 O           1.3146    1.0866    1.2103 O.3     1  LIG1      -0.5600000000000005
     34 O           3.7874    1.3720   -1.5000 O.3     1  LIG1      -0.5600000000000005
     35 O          -4.5846   -1.0364    2.0017 O.3     1  LIG1      -0.5199999999999996
     36 O          -3.0730    0.4421    1.0763 O.3     1  LIG1      -0.5800000000000001
     37 O          -0.9888    1.4565    2.0874 O.3     1  LIG1      -0.6099999999999994
     38 P          -0.1994    0.9447    0.6384 P.3     1  LIG1       1.2300000000000004
     39 P          -2.5033    1.1563    2.4247 P.3     1  LIG1          1.25
     40 H          -1.2203   -0.3818   -4.0185 H       1  LIG1       0.18000000000000005
     41 H          -1.0596    0.6403   -2.5505 H       1  LIG1       0.19999999999999996
     42 H          -0.4749   -1.0109   -2.5118 H       1  LIG1       0.18999999999999995
     43 H           7.4476    1.5832    1.4962 H       1  LIG1          0.13
     44 H           5.2667    1.6638    0.2519 H       1  LIG1       0.18999999999999995
     45 H          -6.8466   -0.9628    3.2698 H       1  LIG1       0.16000000000000003
     46 H          -7.3762    0.6344    2.6831 H       1  LIG1       0.16000000000000003
     47 H           2.0720    2.6815    0.0942 H       1  LIG1       0.18000000000000005
     48 H           3.2344    1.6730    0.9974 H       1  LIG1       0.18999999999999995
     49 H          -5.2528    0.8577    1.4426 H       1  LIG1       0.18000000000000005
     50 H           1.7637    0.9172   -1.5769 H       1  LIG1       0.17000000000000004
     51 H          -4.1105   -2.3883   -0.3090 H       1  LIG1       0.18999999999999995
     52 H          -6.5366   -1.7411    0.5293 H       1  LIG1          0.14
     53 H           3.4302   -0.8161    0.2940 H       1  LIG1       0.16000000000000003
     54 H          -4.9836    0.4624   -0.9072 H       1  LIG1       0.15000000000000002
     55 H           4.4905   -1.8302   -1.6942 H       1  LIG1       0.16000000000000003
     56 H           4.9083    0.5043   -3.0084 H       1  LIG1       0.17000000000000004
     57 H          -2.7045   -1.5482    1.4978 H       1  LIG1       0.19999999999999996
     58 H          -5.2242    1.3434    3.6202 H       1  LIG1       0.43000000000000005
     59 H          -7.5112   -0.1067   -0.9491 H       1  LIG1       0.43000000000000005
     60 H           1.0327   -1.2108   -0.1971 H       1  LIG1       0.45999999999999996
     61 H          -5.1281   -1.1229   -2.5865 H       1  LIG1       0.43000000000000005
     62 H           2.2188   -1.5165   -2.6936 H       1  LIG1       0.43999999999999995
     63 H          -1.8561   -0.8553   -0.6073 H       1  LIG1       0.43999999999999995
     64 H          -3.3438   -0.2252    3.8069 H       1  LIG1           0.47
@<TRIPOS>BOND
     1    40     1    1
     2    22     6    2
     3    27    62    1
     4    27    14    1
     5    56    15    1
     6     1    41    1
     7     1    42    1
     8     1     6    1
     9    28    17    2
    10    61    26    1
    11     6    18   am
    12    15    14    1
    13    15    34    1
    14    15    20    1
    15    26    13    1
    16    14    55    1
    17    14    12    1
    18    17    20   ar
    19    17    19   ar
    20    50     8    1
    21    34     8    1
    22    20     3   ar
    23    18    63    1
    24    18    10    1
    25    19     9   ar
    26    59    24    1
    27    54    13    1
    28     8    12    1
    29     8     5    1
    30    25    12    1
    31    25    60    1
    32    13    10    1
    33    13    11    1
    34    12    53    1
    35    30    38    2
    36    10    51    1
    37    10    16    1
    38     3    44    1
    39     3     2   ar
    40    24    11    1
    41     9     2   ar
    42     9    23    2
    43    47     5    1
    44     5    48    1
    45     5    33    1
    46    11    52    1
    47    11     7    1
    48    29    38    1
    49     2    43    1
    50    38    33    1
    51    38    37    1
    52    36    16    1
    53    36    39    1
    54    16    57    1
    55    16    35    1
    56    49     7    1
    57     7    35    1
    58     7     4    1
    59    37    39    1
    60    39    32    2
    61    39    31    1
    62    46     4    1
    63     4    45    1
    64     4    21    1
    65    31    64    1
    66    58    21    1
