@<TRIPOS>MOLECULE
LFTYTUAZOPRMMI-NESSUJCYSA-L	11095286	-2788.6840443111846
 64 66 0 0 0
SMALL
MULLIKEN NwChem

@<TRIPOS>ATOM
      1 C          -4.1040   -2.7312    2.6142 C.3     1  LIG1       -0.5099999999999998
      2 C           7.2161    0.8428   -1.1317 C.ar    1  LIG1       -0.29000000000000004
      3 C           5.9525    0.3650   -1.0816 C.ar    1  LIG1       0.08999999999999986
      4 C          -7.1547    1.1025   -1.1820 C.3     1  LIG1       -0.05999999999999961
      5 C           2.1984    1.1160   -0.4834 C.3     1  LIG1       -0.07000000000000028
      6 C          -3.5896   -1.5207    1.8920 C.2     1  LIG1       0.5099999999999998
      7 C          -6.0182    0.7928   -0.1997 C.3     1  LIG1       0.08999999999999986
      8 C           2.2136   -0.4051   -0.7074 C.3     1  LIG1       0.07000000000000028
      9 C           8.3175    0.0709   -0.5313 C.ar    1  LIG1       0.5199999999999996
     10 C          -3.6803    0.7343    1.1715 C.3     1  LIG1       -0.20000000000000018
     11 C          -5.9503    1.8301    0.9515 C.3     1  LIG1       0.09999999999999964
     12 C           2.1463   -1.2644    0.5663 C.3     1  LIG1       0.08999999999999986
     13 C          -4.5044    1.9785    1.5072 C.3     1  LIG1       0.13999999999999968
     14 C           3.6279   -1.3103    0.9667 C.3     1  LIG1       0.1200000000000001
     15 C           4.3277   -1.4031   -0.4120 C.3     1  LIG1       0.2699999999999996
     16 C          -3.6143    0.6374   -0.3692 C.3     1  LIG1       0.3799999999999999
     17 C           6.7394   -1.5474    0.1944 C.ar    1  LIG1       0.7000000000000002
     18 N          -4.2544   -0.4441    1.8176 N.2     1  LIG1      -0.4299999999999997
     19 N           7.9932   -1.1042    0.1160 N.ar    1  LIG1      -0.6500000000000004
     20 N           5.6762   -0.8176   -0.4445 N.ar    1  LIG1      -0.5099999999999998
     21 O          -8.3725    1.4167   -0.5194 O.3     1  LIG1      -0.6799999999999997
     22 O          -2.3212   -1.7747    1.3944 O.2     1  LIG1      -0.5500000000000007
     23 O           9.4908    0.4804   -0.6132 O.2     1  LIG1      -0.6699999999999999
     24 O          -6.4516    3.1119    0.5696 O.3     1  LIG1      -0.6899999999999995
     25 O           1.7080   -2.5808    0.2749 O.3     1  LIG1      -0.7100000000000009
     26 O          -3.9271    3.1256    0.8985 O.3     1  LIG1      -0.7300000000000004
     27 O           3.9489   -2.3401    1.8529 O.3     1  LIG1      -0.7200000000000006
     28 O           6.3911   -2.5963    0.8044 O.2     1  LIG1      -0.6699999999999999
     29 O          -0.5571    1.4986   -1.6582 O.2     1  LIG1      -0.6899999999999995
     30 O          -1.2205    2.5203    0.6792 O.3     1  LIG1      -0.6600000000000001
     31 O          -0.2084   -0.8251   -3.3080 O.3     2  HOH2      -0.9100000000000001
     32 O          -1.0637   -2.2877   -0.7925 O.2     1  LIG1      -0.5999999999999996
     33 O           1.1116    1.5966    0.3429 O.3     1  LIG1      -0.5399999999999991
     34 O           3.4781   -0.7154   -1.3289 O.3     1  LIG1      -0.5500000000000007
     35 O          -4.8331    0.7931   -1.0100 O.3     1  LIG1      -0.5299999999999994
     36 O          -3.0539   -0.6538   -0.7657 O.3     1  LIG1      -0.5800000000000001
     37 O          -0.8255   -0.0093    0.4381 O.3     1  LIG1      -0.6799999999999997
     38 P          -0.4137    1.5785   -0.1711 P.3     1  LIG1       1.3000000000000007
     39 P          -1.7336   -1.1995   -0.0407 P.3     1  LIG1       1.3200000000000003
     40 H          -5.0675   -2.5103    3.0761 H       1  LIG1       0.18999999999999995
     41 H          -4.2066   -3.5658    1.9113 H       1  LIG1       0.19999999999999996
     42 H          -3.3818   -3.0401    3.3782 H       1  LIG1       0.19999999999999996
     43 H           7.4441    1.7744   -1.6398 H       1  LIG1          0.13
     44 H           5.1021    0.8537   -1.5416 H       1  LIG1       0.19999999999999996
     45 H          -6.8176    1.9260   -1.8270 H       1  LIG1          0.14
     46 H          -7.3413    0.2317   -1.8181 H       1  LIG1       0.16000000000000003
     47 H           3.1032    1.4183    0.0480 H       1  LIG1       0.18999999999999995
     48 H           2.1707    1.6194   -1.4550 H       1  LIG1       0.18000000000000005
     49 H          -6.1599   -0.1966    0.2506 H       1  LIG1       0.17000000000000004
     50 H           1.4300   -0.6802   -1.4200 H       1  LIG1       0.15000000000000002
     51 H          -2.6647    0.9065    1.5327 H       1  LIG1       0.20999999999999996
     52 H          -6.6066    1.4619    1.7450 H       1  LIG1       0.17000000000000004
     53 H           1.5239   -0.7931    1.3380 H       1  LIG1       0.16000000000000003
     54 H          -4.5433    2.1045    2.5990 H       1  LIG1       0.16000000000000003
     55 H           3.8866   -0.3191    1.3882 H       1  LIG1          0.14
     56 H           4.4135   -2.4563   -0.6986 H       1  LIG1       0.17000000000000004
     57 H          -2.9483    1.3948   -0.7758 H       1  LIG1       0.18000000000000005
     58 H          -8.1904    2.2759   -0.0974 H       1  LIG1       0.43000000000000005
     59 H          -5.6573    3.5970    0.2678 H       1  LIG1       0.43999999999999995
     60 H           0.8321   -2.5182   -0.1488 H       1  LIG1       0.44999999999999996
     61 H          -2.9447    3.0098    0.8215 H       1  LIG1       0.45999999999999996
     62 H           4.8912   -2.5669    1.6256 H       1  LIG1       0.43000000000000005
     63 H          -0.3426    0.0218   -2.8383 H       0  HOH0       0.43999999999999995
     64 H          -0.4718   -1.4856   -2.6464 H       0  HOH0       0.43000000000000005
@<TRIPOS>BOND
     1    31    63    1
     2    31    64    1
     3    45     4    1
     4    46     4    1
     5    29    38    2
     6    43     2    1
     7    44     3    1
     8    48     5    1
     9    50     8    1
    10    34     8    1
    11    34    15    1
    12     4    21    1
    13     4     7    1
    14     2     3   ar
    15     2     9   ar
    16     3    20   ar
    17    35    16    1
    18    35     7    1
    19    32    39    2
    20    57    16    1
    21    36    16    1
    22    36    39    1
    23     8     5    1
    24     8    12    1
    25    56    15    1
    26    23     9    2
    27     9    19   ar
    28    21    58    1
    29     5    47    1
    30     5    33    1
    31    20    15    1
    32    20    17   ar
    33    15    14    1
    34    16    10    1
    35     7    49    1
    36     7    11    1
    37    38    33    1
    38    38    37    1
    39    38    30    1
    40    60    25    1
    41    39    37    1
    42    39    22    1
    43    19    17   ar
    44    17    28    2
    45    59    24    1
    46    25    12    1
    47    12    14    1
    48    12    53    1
    49    24    11    1
    50    61    26    1
    51    26    13    1
    52    11    13    1
    53    11    52    1
    54    14    55    1
    55    14    27    1
    56    10    13    1
    57    10    51    1
    58    10    18    1
    59    22     6    1
    60    13    54    1
    61    62    27    1
    62    18     6    2
    63     6     1    1
    64    41     1    1
    65     1    40    1
    66     1    42    1
