@<TRIPOS>MOLECULE
LIEYLSGXGOXYTD-CTBYCIIYSA-M	6044811	-1937.3840411203587
 107 107 0 0 0
SMALL
MULLIKEN NwChem

@<TRIPOS>ATOM
      1 C          -1.9920    4.2026   -1.9797 C.3     1  LIG1            -0.54
      2 C          -3.5187    5.0010   -0.1032 C.3     1  LIG1        -0.54
      3 C          -4.3324   -0.8214   -3.4360 C.3     1  LIG1      -0.5499999999999998
      4 C          -4.8132    0.0401    2.6881 C.3     1  LIG1      -0.5300000000000002
      5 C           0.3449    3.5014    0.7629 C.3     1  LIG1        -0.54
      6 C          -0.7697   -0.9694   -2.6027 C.3     1  LIG1      -0.5599999999999996
      7 C          -1.8481   -3.7987    0.0827 C.3     1  LIG1      -0.5499999999999998
      8 C           1.9876   -1.4099    5.3013 C.3     1  LIG1      -0.5300000000000002
      9 C          -4.4701    3.0204   -3.3608 C.3     1  LIG1      -0.2999999999999998
     10 C          -5.4479   -0.4903   -0.5627 C.3     1  LIG1      -0.3099999999999996
     11 C          -2.2444    1.7839    2.1403 C.3     1  LIG1      -0.33000000000000007
     12 C           0.8387    1.3314   -1.3909 C.3     1  LIG1      -0.3200000000000003
     13 C           0.5874   -3.7272   -1.9065 C.3     1  LIG1      -0.3200000000000003
     14 C          -0.7215   -2.4969    2.6376 C.3     1  LIG1      -0.33999999999999986
     15 C          -4.4614    3.7504   -2.0335 C.2     1  LIG1      -0.1900000000000004
     16 C          -3.7628    1.6447   -3.4253 C.3     1  LIG1      -0.33999999999999986
     17 C          -4.9011    0.6085   -1.4373 C.2     1  LIG1      -0.17999999999999972
     18 C          -4.3736   -1.0383    0.4182 C.3     1  LIG1      -0.33999999999999986
     19 C          -2.8470    0.7284    1.2527 C.2     1  LIG1      -0.17999999999999972
     20 C          -0.6960    1.6848    2.2188 C.3     1  LIG1      -0.34999999999999964
     21 C           0.2554    1.1082   -0.0164 C.2     1  LIG1      -0.16999999999999993
     22 C           1.4992    0.0840   -2.0070 C.3     1  LIG1      -0.3700000000000001
     23 C           1.1945   -2.3555   -1.8121 C.2     1  LIG1      -0.23000000000000043
     24 C           0.5579   -4.4362   -0.5273 C.3     1  LIG1      -0.33999999999999986
     25 C           0.0828   -3.2201    1.5801 C.2     1  LIG1      -0.20000000000000018
     26 C           0.0337   -2.3148    3.9653 C.3     1  LIG1      -0.33000000000000007
     27 C           1.7020   -0.7780    2.8782 C.2     1  LIG1      -0.23000000000000043
     28 C           2.9209    0.0992    2.7082 C.3     1  LIG1      -0.41000000000000014
     29 C           3.9620    1.0671    0.6282 C.2     1  LIG1      -0.3200000000000003
     30 C           4.8924   -0.3550   -1.1233 C.3     1  LIG1       -0.33000000000000007
     31 C          -3.3935    4.2898   -1.4277 C.2     1  LIG1      0.17999999999999972
     32 C          -4.3973    0.4824   -2.6741 C.2     1  LIG1      0.16000000000000014
     33 C          -3.9312   -0.0341    1.4654 C.2     1  LIG1      0.16999999999999993
     34 C          -0.0029    2.0387    0.9168 C.2     1  LIG1      0.15000000000000036
     35 C           0.6436   -1.1666   -2.1041 C.2     1  LIG1      0.1900000000000004
     36 C          -0.3880   -3.7946    0.4642 C.2     1  LIG1      0.17999999999999972
     37 C           1.2839   -1.4497    3.9646 C.2     1  LIG1      0.16000000000000014
     38 C           3.6026   -0.0783    1.3568 C.2     1  LIG1       0.13999999999999968
     39 C           4.6234    0.9210   -0.6016 C.2     1  LIG1       0.09999999999999964
     40 C           4.4860   -1.5661   -0.4745 C.2     1  LIG1       0.40000000000000036
     41 C           3.8779   -1.3476    0.8360 C.2     1  LIG1       0.15000000000000036
     42 C           4.9887    2.0958   -1.4022 C.2     1  LIG1       0.5199999999999996
     43 O           4.5934   -2.7234   -0.9732 O.2     1  LIG1      -0.7799999999999994
     44 O           3.5704   -2.5116    1.5152 O.2     1  LIG1      -0.6899999999999995
     45 O           5.6075    2.1125   -2.4562 O.2     1  LIG1      -0.5500000000000007
     46 O           4.5465    3.2946   -0.8719 O.3     1  LIG1      -0.6199999999999992
     47 H          -1.4372    5.1323   -1.8032 H       1  LIG1       0.15000000000000002
     48 H          -1.9738    3.9968   -3.0543 H       1  LIG1       0.16000000000000003
     49 H          -1.4347    3.4023   -1.4763 H       1  LIG1       0.18000000000000005
     50 H          -4.5441    4.9813    0.2813 H       1  LIG1       0.16000000000000003
     51 H          -2.8654    4.5442    0.6518 H       1  LIG1       0.18000000000000005
     52 H          -3.2042    6.0517   -0.1878 H       1  LIG1       0.16000000000000003
     53 H          -4.6383   -1.6900   -2.8477 H       1  LIG1       0.16000000000000003
     54 H          -4.9650   -0.7776   -4.3353 H       1  LIG1       0.16000000000000003
     55 H          -3.3077   -1.0020   -3.7846 H       1  LIG1       0.17000000000000004
     56 H          -4.8102   -0.9192    3.2256 H       1  LIG1       0.16000000000000003
     57 H          -4.5103    0.8213    3.3893 H       1  LIG1       0.16000000000000003
     58 H          -5.8581    0.2325    2.4055 H       1  LIG1       0.16000000000000003
     59 H           1.1487    3.7742    1.4616 H       1  LIG1       0.16000000000000003
     60 H           0.6848    3.7571   -0.2427 H       1  LIG1       0.16000000000000003
     61 H          -0.5145    4.1446    1.0002 H       1  LIG1       0.17000000000000004
     62 H          -0.7773   -0.3936   -3.5410 H       1  LIG1       0.16000000000000003
     63 H          -1.2911   -1.9134   -2.7884 H       1  LIG1       0.17000000000000004
     64 H          -1.3769   -0.3949   -1.8886 H       1  LIG1       0.18000000000000005
     65 H          -2.1525   -4.7785   -0.3109 H       1  LIG1       0.15000000000000002
     66 H          -2.5098   -3.5427    0.9161 H       1  LIG1       0.17000000000000004
     67 H          -2.0400   -3.0696   -0.7156 H       1  LIG1       0.18000000000000005
     68 H           2.1629   -2.4252    5.6819 H       1  LIG1       0.16000000000000003
     69 H           2.9499   -0.8931    5.2641 H       1  LIG1       0.17000000000000004
     70 H           1.3647   -0.8993    6.0505 H       1  LIG1       0.17000000000000004
     71 H          -5.5089    2.8819   -3.6836 H       1  LIG1          0.14
     72 H          -3.9980    3.6595   -4.1221 H       1  LIG1       0.15000000000000002
     73 H          -6.3045   -0.1098    0.0118 H       1  LIG1          0.14
     74 H          -5.8284   -1.3255   -1.1618 H       1  LIG1       0.15000000000000002
     75 H          -2.5108    2.7795    1.7554 H       1  LIG1       0.16000000000000003
     76 H          -2.6539    1.7289    3.1562 H       1  LIG1       0.15000000000000002
     77 H           0.0431    1.6909   -2.0645 H       1  LIG1       0.16000000000000003
     78 H           1.5975    2.1218   -1.3611 H       1  LIG1          0.14
     79 H          -0.4164   -3.7198   -2.3485 H       1  LIG1       0.15000000000000002
     80 H           1.2141   -4.3373   -2.5724 H       1  LIG1          0.14
     81 H          -1.0602   -1.5184    2.2671 H       1  LIG1       0.16000000000000003
     82 H          -1.6460   -3.0502    2.8560 H       1  LIG1       0.16000000000000003
     83 H          -5.4253    3.8414   -1.5326 H       1  LIG1          0.13
     84 H          -3.6975    1.3685   -4.4869 H       1  LIG1          0.14
     85 H          -2.7206    1.7476   -3.0907 H       1  LIG1       0.17000000000000004
     86 H          -4.8419    1.5825   -0.9608 H       1  LIG1          0.13
     87 H          -4.7749   -1.9354    0.9130 H       1  LIG1          0.14
     88 H          -3.5137   -1.3619   -0.1755 H       1  LIG1       0.16000000000000003
     89 H          -2.3159    0.5828    0.3139 H       1  LIG1          0.13
     90 H          -0.3498    2.3619    3.0129 H       1  LIG1          0.14
     91 H          -0.4287    0.6742    2.5391 H       1  LIG1       0.16000000000000003
     92 H           0.0025    0.0731    0.2133 H       1  LIG1          0.13
     93 H           1.8327    0.3649   -3.0192 H       1  LIG1          0.13
     94 H           2.4053   -0.1501   -1.4462 H       1  LIG1       0.18000000000000005
     95 H           2.2320   -2.3780   -1.4753 H       1  LIG1          0.14
     96 H           0.2652   -5.4870   -0.6848 H       1  LIG1          0.14
     97 H           1.5777   -4.4340   -0.1248 H       1  LIG1          0.13
     98 H           1.1614   -3.2316    1.7194 H       1  LIG1          0.12
     99 H          -0.6617   -1.9083    4.7181 H       1  LIG1       0.15000000000000002
    100 H           0.3121   -3.3110    4.3453 H       1  LIG1       0.15000000000000002
    101 H           1.1277   -0.8708    1.9610 H       1  LIG1       0.15000000000000002
    102 H           2.6046    1.1495    2.7869 H       1  LIG1       0.17000000000000004
    103 H           3.6364   -0.0605    3.5287 H       1  LIG1       0.17000000000000004
    104 H           3.7294    2.0518    1.0176 H       1  LIG1          0.14
    105 H           5.3661   -0.4443   -2.0956 H       1  LIG1       0.08999999999999997
    106 H           3.0880   -2.2722    2.3237 H       1  LIG1       0.43000000000000005
    107 H           4.8662    3.9550   -1.5110 H       1  LIG1       0.43000000000000005
@<TRIPOS>BOND
     1    84    16    1
     2    54     3    1
     3    72     9    1
     4    55     3    1
     5    71     9    1
     6    62     6    1
     7     3    53    1
     8     3    32    1
     9    16     9    1
    10    16    85    1
    11    16    32    1
    12     9    15    1
    13    48     1    1
    14    93    22    1
    15    63     6    1
    16    32    17    2
    17     6    35    1
    18     6    64    1
    19    80    13    1
    20    45    42    2
    21    79    13    1
    22    35    22    1
    23    35    23    2
    24   105    30    1
    25    77    12    1
    26    15    83    1
    27    15    31    2
    28    22    94    1
    29    22    12    1
    30     1    47    1
    31     1    49    1
    32     1    31    1
    33    13    23    1
    34    13    24    1
    35    23    95    1
    36   107    46    1
    37    17    86    1
    38    17    10    1
    39    31     2    1
    40    42    46    1
    41    42    39    1
    42    12    78    1
    43    12    21    1
    44    74    10    1
    45    30    39    1
    46    30    40    1
    47    43    40    2
    48    67     7    1
    49    96    24    1
    50    39    29    2
    51    10    73    1
    52    10    18    1
    53    24    97    1
    54    24    36    1
    55    40    41    1
    56    65     7    1
    57    60     5    1
    58    52     2    1
    59    88    18    1
    60     2    50    1
    61     2    51    1
    62    21    92    1
    63    21    34    2
    64     7    36    1
    65     7    66    1
    66    89    19    1
    67    18    87    1
    68    18    33    1
    69    36    25    2
    70    29   104    1
    71    29    38    1
    72     5    34    1
    73     5    61    1
    74     5    59    1
    75    41    38    2
    76    41    44    1
    77    34    20    1
    78    19    33    2
    79    19    11    1
    80    38    28    1
    81    33     4    1
    82    44   106    1
    83    25    98    1
    84    25    14    1
    85    75    11    1
    86   101    27    1
    87    11    20    1
    88    11    76    1
    89    20    91    1
    90    20    90    1
    91    81    14    1
    92    58     4    1
    93    14    82    1
    94    14    26    1
    95     4    56    1
    96     4    57    1
    97    28   102    1
    98    28    27    1
    99    28   103    1
   100    27    37    2
   101    37    26    1
   102    37     8    1
   103    26   100    1
   104    26    99    1
   105    69     8    1
   106     8    68    1
   107     8    70    1
