@<TRIPOS>MOLECULE
LIPOUNRJVLNBCD-UHFFFAOYSA-L	6044813	-795.810684528873
 11 9 0 0 0
SMALL
MULLIKEN NwChem

@<TRIPOS>ATOM
      1 C          -2.6475   -8.2954   -3.3702 C.3     1  LIG1       -0.5300000000000002
      2 C          -1.6927   -8.3614   -2.1149 C.2     1  LIG1           0.5
      3 O          -2.2644   -8.5815   -1.0178 O.co2   1  LIG1      -0.6799999999999997
      4 O           5.6969   11.1948    5.6787 O.3     2  LIG2      -0.6500000000000004
      5 O           4.7134   12.1872    3.4694 O.3     2  LIG2      -0.6500000000000004
      6 O           3.5106   12.6118    5.7448 O.2     2  LIG2      -0.6500000000000004
      7 O          -0.4660   -8.2245   -2.3789 O.co2   1  LIG1      -0.6799999999999997
      8 P           4.6385   11.9976    4.9637 P.3     2  LIG2       0.9399999999999995
      9 H          -2.2980   -7.5525   -4.1013 H       1  LIG1          0.13
     10 H          -3.6872   -8.0707   -3.0847 H       1  LIG1          0.12
     11 H          -2.6428   -9.2744   -3.8758 H       1  LIG1       0.15000000000000002
@<TRIPOS>BOND
     1     9     1    1
     2    11     1    1
     3     1    10    1
     4     1     2    1
     5     7     2   ar
     6     2     3   ar
     7     5     8    1
     8     8     4    1
     9     8     6    2
