@<TRIPOS>MOLECULE
LJQLQCAXBUHEAZ-UWTATZPHSA-J	6044814	-1552.3125745257757
 19 18 0 0 0
SMALL
MULLIKEN NwChem

@<TRIPOS>ATOM
      1 C           0.5100    0.8877    1.1846 C.3     1  LIG1       0.009999999999999787
      2 C           0.1031   -0.3291    0.3133 C.3     1  LIG1       0.03000000000000025
      3 C          -0.7862    0.0000   -0.9505 C.2     1  LIG1       0.5899999999999999
      4 O          -0.5267   -1.3617    1.0813 O.3     1  LIG1      -0.7100000000000009
      5 O          -0.4472    0.8955   -1.7266 O.2     1  LIG1      -0.5899999999999999
      6 O           1.1639    2.3213    3.9627 O.3     1  LIG1      -0.8000000000000007
      7 O           3.4313    1.0571    3.7340 O.3     1  LIG1      -0.7899999999999991
      8 O           2.7788    2.8944    2.0051 O.2     1  LIG1      -0.8100000000000005
      9 O          -3.6918   -2.5336   -1.7490 O.3     1  LIG1        -0.75
     10 O          -3.9235   -0.1485   -2.7523 O.3     1  LIG1      -0.7400000000000002
     11 O          -2.0754   -1.7649   -3.6341 O.2     1  LIG1      -0.7400000000000002
     12 O           1.5688    0.5576    2.0445 O.3     1  LIG1      -0.6500000000000004
     13 O          -1.8106   -0.8088   -1.0496 O.3     1  LIG1      -0.6400000000000006
     14 P           2.3051    1.8488    3.0370 P.3     1  LIG1       0.8900000000000006
     15 P          -3.0628   -1.3872   -2.5371 P.3     1  LIG1       0.9399999999999995
     16 H          -0.3874    1.2163    1.7468 H       1  LIG1       0.09999999999999998
     17 H           0.7874    1.7076    0.5001 H       1  LIG1       0.09999999999999998
     18 H           1.0508   -0.7180   -0.1086 H       1  LIG1          0.14
     19 H          -1.2888   -1.5831    0.5004 H       1  LIG1       0.42000000000000004
@<TRIPOS>BOND
     1    11    15    2
     2    10    15    1
     3    15     9    1
     4    15    13    1
     5     5     3    2
     6    13     3    1
     7     3     2    1
     8    18     2    1
     9     2     4    1
    10     2     1    1
    11    17     1    1
    12    19     4    1
    13     1    16    1
    14     1    12    1
    15     8    14    2
    16    12    14    1
    17    14     7    1
    18    14     6    1
