@<TRIPOS>MOLECULE
LKDRXBCSQODPBY-ARQDHWQXSA-N	6044815	-687.0231136245606
 24 24 0 0 0
SMALL
MULLIKEN NwChem

@<TRIPOS>ATOM
      1 C           1.2325    1.4505   -0.2864 C.3     1  LIG1       -0.08000000000000007
      2 C          -2.2691    0.4928    0.2874 C.3     1  LIG1       -0.07000000000000028
      3 C           1.9879    0.2322    0.2266 C.3     1  LIG1       0.08000000000000007
      4 C           1.2896   -1.0734   -0.2032 C.3     1  LIG1       0.11000000000000032
      5 C          -0.2067   -1.0384    0.1843 C.3     1  LIG1       0.08999999999999986
      6 C          -0.8573    0.2843   -0.2603 C.3     1  LIG1       0.45999999999999996
      7 O          -2.8588    1.6212   -0.3558 O.3     1  LIG1      -0.6600000000000001
      8 O           2.0859    0.2641    1.6575 O.3     1  LIG1      -0.6699999999999999
      9 O           1.9499   -2.1889    0.3582 O.3     1  LIG1      -0.6799999999999997
     10 O          -0.9375   -2.1389   -0.3200 O.3     1  LIG1      -0.6699999999999999
     11 O          -0.8995    0.2672   -1.6693 O.3     1  LIG1      -0.6699999999999999
     12 O          -0.1110    1.4117    0.2221 O.3     1  LIG1      -0.5299999999999994
     13 H           1.6732    2.3725    0.1017 H       1  LIG1       0.18000000000000005
     14 H           1.2241    1.4799   -1.3817 H       1  LIG1       0.17000000000000004
     15 H          -2.8791   -0.3775    0.0408 H       1  LIG1       0.17000000000000004
     16 H          -2.2328    0.6123    1.3783 H       1  LIG1       0.16000000000000003
     17 H           3.0175    0.2271   -0.1465 H       1  LIG1       0.17000000000000004
     18 H           1.3577   -1.1777   -1.2928 H       1  LIG1       0.16000000000000003
     19 H          -0.2779   -1.1055    1.2764 H       1  LIG1       0.16000000000000003
     20 H          -2.3140    2.3863   -0.1022 H       1  LIG1       0.43000000000000005
     21 H           1.2390    0.6180    1.9790 H       1  LIG1       0.43000000000000005
     22 H           2.1305   -1.9402    1.2827 H       1  LIG1       0.42000000000000004
     23 H          -0.9973   -2.0004   -1.2809 H       1  LIG1       0.42000000000000004
     24 H          -1.6097    0.8937   -1.9111 H       1  LIG1       0.43000000000000005
@<TRIPOS>BOND
     1    24    11    1
     2    11     6    1
     3    14     1    1
     4    18     4    1
     5    23    10    1
     6     7    20    1
     7     7     2    1
     8    10     5    1
     9     1    13    1
    10     1    12    1
    11     1     3    1
    12     6     5    1
    13     6    12    1
    14     6     2    1
    15     4     5    1
    16     4     3    1
    17     4     9    1
    18    17     3    1
    19    15     2    1
    20     5    19    1
    21     3     8    1
    22     2    16    1
    23     9    22    1
    24     8    21    1
