@<TRIPOS>MOLECULE
LKLLJYJTYPVCID-OHPMOLHNSA-M	6044816	-1005.2014355971495
 53 52 0 0 0
SMALL
MULLIKEN NwChem

@<TRIPOS>ATOM
      1 C           5.8370    1.8652   -5.6797 C.3     1  LIG1      -0.46999999999999975
      2 C           5.5397    0.7439   -4.6771 C.3     1  LIG1      -0.28000000000000025
      3 C          -0.9117   -0.7593    0.7648 C.3     1  LIG1      -0.3200000000000003
      4 C          -1.2972   -0.0256   -0.4914 C.2     1  LIG1      -0.1200000000000001
      5 C          -1.1791    0.0585    2.0504 C.3     1  LIG1      -0.2599999999999998
      6 C          -0.4864    0.5700   -1.3750 C.2     1  LIG1      -0.1299999999999999
      7 C          -2.6397    0.4979    2.2511 C.3     1  LIG1      -0.2599999999999998
      8 C           1.0264    0.6144   -1.3429 C.3     1  LIG1      -0.3600000000000003
      9 C          -3.6740   -0.6404    2.2583 C.3     1  LIG1      -0.2699999999999996
     10 C           1.5996   -0.2348   -2.4513 C.2     1  LIG1      -0.09999999999999964
     11 C          -3.4132   -1.7524    3.2896 C.3     1  LIG1      -0.2599999999999998
     12 C           2.2832    0.1793   -3.5302 C.2     1  LIG1      -0.20000000000000018
     13 C          -3.3347   -1.2714    4.7524 C.3     1  LIG1        -0.25
     14 C           2.6727    1.6025   -3.8733 C.3     1  LIG1      -0.3200000000000003
     15 C          -4.5268   -0.3950    5.1710 C.3     1  LIG1       -0.33999999999999986
     16 C           5.1922    1.2484   -3.2726 C.3     1  LIG1       0.09999999999999964
     17 C           3.9458    2.1577   -3.1803 C.3     1  LIG1       0.11000000000000032
     18 C          -5.8880   -1.0790    4.7838 C.2     1  LIG1       0.5300000000000002
     19 O           5.0657    0.1646   -2.3410 O.3     1  LIG1      -0.6799999999999997
     20 O           3.7037    2.4502   -1.8110 O.3     1  LIG1      -0.6699999999999999
     21 O          -6.0413   -2.2368    5.2523 O.co2   1  LIG1      -0.6799999999999997
     22 O          -6.6381   -0.4158    4.0210 O.co2   1  LIG1      -0.6799999999999997
     23 H           4.9530    2.4830   -5.8729 H       1  LIG1       0.16000000000000003
     24 H           6.1692    1.4547   -6.6396 H       1  LIG1       0.15000000000000002
     25 H           6.6285    2.5273   -5.3076 H       1  LIG1       0.15000000000000002
     26 H           4.7239    0.1129   -5.0529 H       1  LIG1       0.15000000000000002
     27 H           6.4135    0.0886   -4.5770 H       1  LIG1       0.15000000000000002
     28 H          -1.4864   -1.6930    0.8166 H       1  LIG1       0.15000000000000002
     29 H           0.1459   -1.0497    0.7402 H       1  LIG1          0.14
     30 H          -2.3703    0.0491   -0.6668 H       1  LIG1          0.14
     31 H          -0.8620   -0.5463    2.9095 H       1  LIG1          0.14
     32 H          -0.5315    0.9470    2.0337 H       1  LIG1          0.13
     33 H          -0.9317    1.0656   -2.2387 H       1  LIG1          0.13
     34 H          -2.7018    1.0411    3.2021 H       1  LIG1          0.14
     35 H          -2.9085    1.2248    1.4708 H       1  LIG1          0.13
     36 H           1.3969    0.2394   -0.3807 H       1  LIG1       0.16000000000000003
     37 H           1.3853    1.6450   -1.4303 H       1  LIG1       0.16000000000000003
     38 H          -4.6684   -0.2255    2.4620 H       1  LIG1          0.12
     39 H          -3.7290   -1.0900    1.2541 H       1  LIG1          0.13
     40 H           1.3715   -1.2983   -2.3692 H       1  LIG1          0.14
     41 H          -4.2404   -2.4684    3.2299 H       1  LIG1          0.12
     42 H          -2.4932   -2.3053    3.0357 H       1  LIG1          0.13
     43 H           2.5797   -0.5808   -4.2552 H       1  LIG1       0.16000000000000003
     44 H          -3.3316   -2.1614    5.3931 H       1  LIG1          0.12
     45 H          -2.3831   -0.7398    4.9259 H       1  LIG1          0.13
     46 H           1.8636    2.2936   -3.6129 H       1  LIG1       0.16000000000000003
     47 H           2.8109    1.6769   -4.9597 H       1  LIG1       0.16000000000000003
     48 H          -4.4900   -0.2515    6.2616 H       1  LIG1          0.12
     49 H          -4.4718    0.5981    4.7062 H       1  LIG1       0.10999999999999999
     50 H           6.0385    1.8322   -2.8888 H       1  LIG1       0.15000000000000002
     51 H           4.1783    3.1182   -3.6579 H       1  LIG1       0.15000000000000002
     52 H           4.2549   -0.3234   -2.5756 H       1  LIG1       0.41000000000000003
     53 H           3.9339    1.6326   -1.3323 H       1  LIG1       0.42000000000000004
@<TRIPOS>BOND
     1    24     1    1
     2    23     1    1
     3     1    25    1
     4     1     2    1
     5    26     2    1
     6    47    14    1
     7     2    27    1
     8     2    16    1
     9    43    12    1
    10    14    46    1
    11    14    12    1
    12    14    17    1
    13    51    17    1
    14    12    10    2
    15    16    17    1
    16    16    50    1
    17    16    19    1
    18    17    20    1
    19    52    19    1
    20    10    40    1
    21    10     8    1
    22    33     6    1
    23    20    53    1
    24    37     8    1
    25     6     8    1
    26     6     4    2
    27     8    36    1
    28    30     4    1
    29     4     3    1
    30    29     3    1
    31     3    28    1
    32     3     5    1
    33    39     9    1
    34    35     7    1
    35    32     5    1
    36     5     7    1
    37     5    31    1
    38     7     9    1
    39     7    34    1
    40     9    38    1
    41     9    11    1
    42    42    11    1
    43    41    11    1
    44    11    13    1
    45    22    18   ar
    46    49    15    1
    47    13    45    1
    48    13    15    1
    49    13    44    1
    50    18    15    1
    51    18    21   ar
    52    15    48    1
