@<TRIPOS>MOLECULE
LKMQQQABIGIHGL-LAAQXVIISA-M	6044817	-1666.9336343335947
 93 93 0 0 0
SMALL
MULLIKEN NwChem

@<TRIPOS>ATOM
      1 C           1.4610   -4.2519    0.5966 C.3     1  LIG1            -0.54
      2 C           1.9680   -3.9510    3.0753 C.3     1  LIG1        -0.54
      3 C           4.2721   -0.3586   -1.9533 C.3     1  LIG1        -0.54
      4 C           3.1991    1.4951    3.2913 C.3     1  LIG1        -0.54
      5 C          -1.6297   -2.3853    1.2588 C.3     1  LIG1      -0.5300000000000002
      6 C           1.0125   -0.8364   -4.0867 C.3     1  LIG1        -0.54
      7 C           0.8734    2.9397   -1.0129 C.3     1  LIG1      -0.5499999999999998
      8 C           4.4578   -3.7648    0.0404 C.3     1  LIG1      -0.3099999999999996
      9 C           5.1929    0.6551    0.7668 C.3     1  LIG1      -0.3099999999999996
     10 C           0.7111   -0.1940    2.3759 C.3     1  LIG1      -0.33000000000000007
     11 C          -0.6979   -2.1294   -1.7378 C.3     1  LIG1      -0.33000000000000007
     12 C           0.0101    2.1053   -3.9384 C.3     1  LIG1      -0.3099999999999996
     13 C           3.7851   -3.7233    1.3973 C.2     1  LIG1      -0.20000000000000018
     14 C           4.0608   -2.6888   -0.9953 C.3     1  LIG1      -0.33000000000000007
     15 C           4.9102   -0.7921    0.4331 C.2     1  LIG1      -0.1900000000000004
     16 C           3.8987    1.5120    0.8365 C.3     1  LIG1      -0.33999999999999986
     17 C           1.8523    0.2949    1.5233 C.2     1  LIG1      -0.1900000000000004
     18 C          -0.6461   -0.0729    1.6282 C.3     1  LIG1      -0.33999999999999986
     19 C          -0.5359   -1.1099   -0.6366 C.2     1  LIG1      -0.20000000000000018
     20 C          -1.2260   -1.5179   -3.0643 C.3     1  LIG1      -0.33999999999999986
     21 C          -0.7646    0.8693   -3.5583 C.2     1  LIG1      -0.17999999999999972
     22 C          -0.4660    3.3531   -3.1595 C.3     1  LIG1      -0.34999999999999964
     23 C          -1.6210    3.3525   -0.9685 C.2     1  LIG1      -0.1900000000000004
     24 C          -1.8818    3.3269    0.5084 C.3     1  LIG1      -0.3799999999999999
     25 C          -5.1608    0.7932    1.7589 C.2     1  LIG1      -0.1900000000000004
     26 C          -4.8898    1.9526    2.4470 C.2     1  LIG1      -0.2599999999999998
     27 C          -3.3177    1.2454    0.2580 C.2     1  LIG1      -0.28000000000000025
     28 C           2.4927   -3.9672    1.6602 C.2     1  LIG1      0.16999999999999993
     29 C           4.4726   -1.2517   -0.7496 C.2     1  LIG1      0.16999999999999993
     30 C           2.8988    1.0542    1.8800 C.2     1  LIG1      0.17999999999999972
     31 C          -0.9082   -1.2054    0.6545 C.2     1  LIG1      0.15000000000000036
     32 C          -0.3487   -0.4054   -3.5948 C.2     1  LIG1      0.16999999999999993
     33 C          -0.4709    3.2056   -1.6491 C.2     1  LIG1      0.17999999999999972
     34 C          -3.0189    2.4143    0.9251 C.2     1  LIG1       0.040000000000000036
     35 C          -4.3722    0.3803    0.6546 C.3     1  LIG1       0.03000000000000025
     36 C          -3.7945    2.8373    2.0935 C.2     1  LIG1       0.34999999999999964
     37 C          -4.7116   -0.8583   -0.0374 C.2     1  LIG1           0.5
     38 O          -3.5296    3.8929    2.7278 O.2     1  LIG1      -0.7100000000000009
     39 O          -3.7687   -1.3464   -0.9345 O.3     1  LIG1      -0.6699999999999999
     40 O          -5.7376   -1.5073    0.1038 O.2     1  LIG1      -0.5700000000000003
     41 H           0.7355   -4.9996    0.9410 H       1  LIG1       0.15000000000000002
     42 H           1.9011   -4.6139   -0.3380 H       1  LIG1       0.16000000000000003
     43 H           0.8944   -3.3404    0.3678 H       1  LIG1       0.18000000000000005
     44 H           2.7375   -3.6533    3.7956 H       1  LIG1       0.16000000000000003
     45 H           1.1238   -3.2600    3.1811 H       1  LIG1       0.18000000000000005
     46 H           1.5909   -4.9432    3.3636 H       1  LIG1       0.16000000000000003
     47 H           4.7450    0.6210   -1.8407 H       1  LIG1       0.16000000000000003
     48 H           4.6736   -0.8278   -2.8625 H       1  LIG1       0.15000000000000002
     49 H           3.2017   -0.1878   -2.1378 H       1  LIG1       0.18000000000000005
     50 H           3.2403    2.5911    3.3594 H       1  LIG1       0.16000000000000003
     51 H           2.4684    1.1387    4.0212 H       1  LIG1       0.16000000000000003
     52 H           4.1862    1.1282    3.6090 H       1  LIG1       0.16000000000000003
     53 H          -2.6376   -2.0717    1.5563 H       1  LIG1       0.16000000000000003
     54 H          -1.7297   -3.2352    0.5811 H       1  LIG1       0.17000000000000004
     55 H          -1.1172   -2.7274    2.1685 H       1  LIG1       0.17000000000000004
     56 H           0.9131   -1.6163   -4.8544 H       1  LIG1       0.16000000000000003
     57 H           1.5931   -0.0164   -4.5157 H       1  LIG1       0.16000000000000003
     58 H           1.6070   -1.2797   -3.2757 H       1  LIG1       0.18000000000000005
     59 H           1.5482    3.8012   -1.1446 H       1  LIG1       0.15000000000000002
     60 H           0.8022    2.7361    0.0585 H       1  LIG1       0.17000000000000004
     61 H           1.3684    2.0711   -1.4737 H       1  LIG1       0.17000000000000004
     62 H           5.5442   -3.7184    0.1832 H       1  LIG1          0.14
     63 H           4.2580   -4.7402   -0.4256 H       1  LIG1       0.15000000000000002
     64 H           5.7209    0.7122    1.7272 H       1  LIG1          0.14
     65 H           5.8641    1.1091    0.0239 H       1  LIG1       0.15000000000000002
     66 H           0.8751   -1.2408    2.6692 H       1  LIG1       0.16000000000000003
     67 H           0.6508    0.3771    3.3083 H       1  LIG1       0.15000000000000002
     68 H           0.2723   -2.6092   -1.9388 H       1  LIG1       0.17000000000000004
     69 H          -1.3813   -2.9280   -1.4362 H       1  LIG1       0.15000000000000002
     70 H           1.0853    1.9552   -3.7711 H       1  LIG1       0.15000000000000002
     71 H          -0.0996    2.3148   -5.0159 H       1  LIG1       0.15000000000000002
     72 H           4.4338   -3.5046    2.2460 H       1  LIG1          0.13
     73 H           4.4735   -3.0020   -1.9674 H       1  LIG1          0.14
     74 H           2.9691   -2.7053   -1.1358 H       1  LIG1       0.17000000000000004
     75 H           4.9834   -1.4909    1.2612 H       1  LIG1          0.13
     76 H           4.1831    2.5566    1.0328 H       1  LIG1          0.13
     77 H           3.4223    1.4996   -0.1482 H       1  LIG1       0.16000000000000003
     78 H           1.7736    0.0143    0.4732 H       1  LIG1          0.13
     79 H          -1.4629   -0.0316    2.3562 H       1  LIG1          0.14
     80 H          -0.6688    0.8870    1.1091 H       1  LIG1       0.17000000000000004
     81 H          -0.0763   -0.1737   -0.9519 H       1  LIG1          0.14
     82 H          -1.2917   -2.3292   -3.8056 H       1  LIG1          0.14
     83 H          -2.2459   -1.1535   -2.9044 H       1  LIG1       0.15000000000000002
     84 H          -1.7715    1.0568   -3.1861 H       1  LIG1          0.13
     85 H           0.1792    4.1985   -3.4506 H       1  LIG1          0.14
     86 H          -1.4801    3.6066   -3.4964 H       1  LIG1          0.14
     87 H          -2.5235    3.5305   -1.5594 H       1  LIG1          0.12
     88 H          -0.9679    3.0882    1.0719 H       1  LIG1       0.15000000000000002
     89 H          -2.1541    4.3348    0.8557 H       1  LIG1       0.15000000000000002
     90 H          -5.9905    0.1540    2.0516 H       1  LIG1          0.13
     91 H          -5.4992    2.2581    3.2968 H       1  LIG1       0.09999999999999998
     92 H          -2.7170    0.9993   -0.6180 H       1  LIG1          0.14
     93 H          -2.9276   -0.8846   -0.7756 H       1  LIG1       0.44999999999999996
@<TRIPOS>BOND
     1    71    12    1
     2    56     6    1
     3    57     6    1
     4     6    32    1
     5     6    58    1
     6    12    70    1
     7    12    21    1
     8    12    22    1
     9    82    20    1
    10    32    21    2
    11    32    20    1
    12    21    84    1
    13    86    22    1
    14    85    22    1
    15    22    33    1
    16    20    83    1
    17    20    11    1
    18    48     3    1
    19    49     3    1
    20    73    14    1
    21     3    47    1
    22     3    29    1
    23    68    11    1
    24    11    69    1
    25    11    19    1
    26    33     7    1
    27    33    23    2
    28    87    23    1
    29    61     7    1
    30    59     7    1
    31    74    14    1
    32     7    60    1
    33    14    29    1
    34    14     8    1
    35    23    24    1
    36    81    19    1
    37    39    93    1
    38    39    37    1
    39    29    15    2
    40    19    31    2
    41    92    27    1
    42    63     8    1
    43    42     1    1
    44    77    16    1
    45    37    40    2
    46    37    35    1
    47    65     9    1
    48     8    62    1
    49     8    13    1
    50    27    35    1
    51    27    34    2
    52    43     1    1
    53    15     9    1
    54    15    75    1
    55    78    17    1
    56    24    89    1
    57    24    34    1
    58    24    88    1
    59    54     5    1
    60     1    41    1
    61     1    28    1
    62    31     5    1
    63    31    18    1
    64    35    25    1
    65     9    16    1
    66     9    64    1
    67    16    76    1
    68    16    30    1
    69    34    36    1
    70    80    18    1
    71     5    53    1
    72     5    55    1
    73    13    28    2
    74    13    72    1
    75    17    30    2
    76    17    10    1
    77    18    79    1
    78    18    10    1
    79    28     2    1
    80    25    90    1
    81    25    26    2
    82    30     4    1
    83    36    26    1
    84    36    38    2
    85    10    66    1
    86    10    67    1
    87    26    91    1
    88     2    45    1
    89     2    46    1
    90     2    44    1
    91     4    50    1
    92     4    52    1
    93     4    51    1
