@<TRIPOS>MOLECULE
LLCSXHMJULHSJN-UHFFFAOYSA-M	11095282	-1180.2476727608164
 29 28 0 0 0
SMALL
MULLIKEN NwChem

@<TRIPOS>ATOM
      1 C          -3.7367   -0.1125   -0.6057 C.3     1  LIG1       -0.07000000000000028
      2 C           4.3248    1.3716    0.4320 C.3     1  LIG1       -0.040000000000000036
      3 C          -2.1788   -0.7013    1.3275 C.3     1  LIG1       -0.08000000000000007
      4 C           1.8487    1.0585    0.8820 C.3     1  LIG1       -0.07000000000000028
      5 C          -3.5513   -0.9171    0.6943 C.3     1  LIG1       0.09999999999999964
      6 C           3.1140    0.4491    0.2688 C.3     1  LIG1       0.09999999999999964
      7 O          -3.5053    1.2688   -0.4306 O.3     1  LIG1      -0.6999999999999993
      8 O           5.4386    0.8530   -0.2792 O.3     1  LIG1      -0.6799999999999997
      9 O          -3.7667   -2.3089    0.4442 O.3     1  LIG1      -0.6799999999999997
     10 O           3.0105    0.2339   -1.1288 O.3     1  LIG1      -0.7200000000000006
     11 O          -0.8205    0.9996   -0.7321 O.3     1  LIG1      -0.7100000000000009
     12 O           0.6821   -1.1046   -1.2463 O.2     1  LIG1      -0.6799999999999997
     13 O          -1.1776   -1.2741    0.4724 O.3     1  LIG1      -0.5700000000000003
     14 O           0.8076    0.0977    1.0471 O.3     1  LIG1      -0.5800000000000001
     15 P          -0.1214   -0.2629   -0.2871 P.3     1  LIG1       1.1500000000000004
     16 H          -4.7695   -0.2586   -0.9496 H       1  LIG1          0.14
     17 H          -3.0717   -0.5403   -1.3711 H       1  LIG1          0.14
     18 H           4.0570    2.3799    0.0672 H       1  LIG1          0.13
     19 H           4.6078    1.4575    1.4886 H       1  LIG1       0.16000000000000003
     20 H          -2.0023    0.3650    1.4936 H       1  LIG1       0.17000000000000004
     21 H          -2.1239   -1.2301    2.2866 H       1  LIG1       0.17000000000000004
     22 H           1.5070    1.8980    0.2613 H       1  LIG1       0.16000000000000003
     23 H           2.0775    1.4372    1.8882 H       1  LIG1       0.17000000000000004
     24 H          -4.3155   -0.6046    1.4187 H       1  LIG1       0.15000000000000002
     25 H           3.3166   -0.4995    0.7958 H       1  LIG1          0.13
     26 H          -2.5273    1.3714   -0.5405 H       1  LIG1       0.43999999999999995
     27 H           5.0240    0.4659   -1.0744 H       1  LIG1       0.42000000000000004
     28 H          -2.9424   -2.6046    0.0180 H       1  LIG1       0.42000000000000004
     29 H           2.2288   -0.3632   -1.2948 H       1  LIG1       0.44999999999999996
@<TRIPOS>BOND
     1    17     1    1
     2    29    10    1
     3    12    15    2
     4    10     6    1
     5    27     8    1
     6    16     1    1
     7    11    15    1
     8     1     7    1
     9     1     5    1
    10    26     7    1
    11    15    13    1
    12    15    14    1
    13     8     2    1
    14    28     9    1
    15    18     2    1
    16    22     4    1
    17     6     2    1
    18     6    25    1
    19     6     4    1
    20     2    19    1
    21     9     5    1
    22    13     3    1
    23     5     3    1
    24     5    24    1
    25     4    14    1
    26     4    23    1
    27     3    20    1
    28     3    21    1
