@<TRIPOS>MOLECULE
LMYZQUNLYGJIHI-SPONXPENSA-N	6044820	-1170.4962465967408
 77 80 0 0 0
SMALL
MULLIKEN NwChem

@<TRIPOS>ATOM
      1 C          -2.9732    3.0743   -3.5850 C.3     1  LIG1      -0.46999999999999975
      2 C          -2.9683    4.7439   -5.4613 C.3     1  LIG1      -0.45999999999999996
      3 C           1.8112    4.5113   -0.4472 C.3     1  LIG1      -0.46999999999999975
      4 C           0.6159   -4.3953    4.7535 C.3     1  LIG1      -0.4900000000000002
      5 C           1.6944    0.6560   -2.7621 C.3     1  LIG1      -0.4900000000000002
      6 C           2.0832   -2.3931    2.4848 C.3     1  LIG1      -0.4900000000000002
      7 C          -0.1005    4.8629   -2.8635 C.3     1  LIG1      -0.2699999999999996
      8 C          -1.4924    5.1718   -3.4454 C.3     1  LIG1      -0.2599999999999998
      9 C          -0.0340    3.6221   -1.9644 C.3     1  LIG1      -0.2699999999999996
     10 C          -0.4912   -0.4056    2.6007 C.2     1  LIG1      -0.20999999999999996
     11 C          -0.4665   -1.5022    3.6333 C.3     1  LIG1      -0.3099999999999996
     12 C           0.4358    1.8951    0.6540 C.3     1  LIG1      -0.29000000000000004
     13 C          -0.2391    0.3769   -1.1111 C.3     1  LIG1      -0.3099999999999996
     14 C           1.4175   -1.7829   -0.3847 C.3     1  LIG1      -0.2999999999999998
     15 C          -0.3828   -5.1500    1.4470 C.3     1  LIG1      -0.29000000000000004
     16 C           2.0890   -0.4112   -0.5056 C.3     1  LIG1      -0.2999999999999998
     17 C           0.9111   -4.3327    1.3697 C.3     1  LIG1      -0.3099999999999996
     18 C          -2.1164    4.0892   -4.3620 C.3     1  LIG1      -0.04999999999999982
     19 C           1.3467    3.3423   -1.3374 C.3     1  LIG1      -0.08000000000000007
     20 C          -0.5525   -4.1025    3.7989 C.3     1  LIG1      -0.09999999999999964
     21 C          -0.1877   -0.5551    1.3003 C.2     1  LIG1      0.16000000000000014
     22 C           1.4497    2.0160   -0.5317 C.3     1  LIG1      -0.11000000000000032
     23 C          -0.4296   -2.8487    2.9137 C.3     1  LIG1      -0.1200000000000001
     24 C          -0.4722    0.6447    0.3799 C.3     1  LIG1      -0.16999999999999993
     25 C           0.3129   -1.8981    0.7255 C.3     1  LIG1      -0.16000000000000014
     26 C          -0.8801   -5.3289    2.8920 C.3     1  LIG1       0.13999999999999968
     27 C           1.2636    0.6629   -1.2930 C.3     1  LIG1      0.1299999999999999
     28 C           0.7402   -2.8710    1.8824 C.3     1  LIG1      0.09999999999999964
     29 O          -2.2912   -5.5479    2.7806 O.3     1  LIG1      -0.6899999999999995
     30 H          -3.8329    3.5759   -3.1200 H       1  LIG1          0.14
     31 H          -2.4157    2.5760   -2.7867 H       1  LIG1       0.16000000000000003
     32 H          -3.3639    2.2983   -4.2553 H       1  LIG1          0.14
     33 H          -3.7583    5.3633   -5.0172 H       1  LIG1          0.14
     34 H          -2.3617    5.3905   -6.1073 H       1  LIG1          0.14
     35 H          -3.4541    3.9921   -6.0961 H       1  LIG1          0.14
     36 H           1.0856    4.7178    0.3495 H       1  LIG1       0.15000000000000002
     37 H           2.7706    4.2833    0.0312 H       1  LIG1          0.14
     38 H           1.9420    5.4336   -1.0216 H       1  LIG1       0.15000000000000002
     39 H           0.9068   -3.5061    5.3229 H       1  LIG1       0.15000000000000002
     40 H           0.3303   -5.1735    5.4722 H       1  LIG1       0.15000000000000002
     41 H           1.4998   -4.7601    4.2229 H       1  LIG1       0.16000000000000003
     42 H           1.0799    1.3192   -3.3802 H       1  LIG1       0.15000000000000002
     43 H           2.7410    0.9656   -2.8720 H       1  LIG1          0.14
     44 H           1.6054   -0.3552   -3.1780 H       1  LIG1          0.14
     45 H           2.3197   -2.9165    3.4131 H       1  LIG1       0.15000000000000002
     46 H           2.9075   -2.5860    1.7901 H       1  LIG1       0.15000000000000002
     47 H           2.0790   -1.3199    2.6942 H       1  LIG1       0.15000000000000002
     48 H           0.6129    4.7371   -3.6923 H       1  LIG1          0.13
     49 H           0.2306    5.7482   -2.3075 H       1  LIG1          0.13
     50 H          -1.4030    6.1069   -4.0147 H       1  LIG1          0.13
     51 H          -2.1912    5.3876   -2.6235 H       1  LIG1          0.13
     52 H          -0.7911    3.7088   -1.1708 H       1  LIG1          0.13
     53 H          -0.3246    2.7594   -2.5681 H       1  LIG1       0.15000000000000002
     54 H          -0.8563    0.5670    2.9337 H       1  LIG1          0.12
     55 H          -1.3703   -1.4361    4.2567 H       1  LIG1          0.14
     56 H           0.3806   -1.3803    4.3250 H       1  LIG1       0.15000000000000002
     57 H          -0.1851    2.7931    0.7304 H       1  LIG1          0.14
     58 H           0.9477    1.7932    1.6149 H       1  LIG1          0.13
     59 H          -0.5417   -0.6229   -1.4334 H       1  LIG1          0.14
     60 H          -0.8324    1.0766   -1.7050 H       1  LIG1       0.15000000000000002
     61 H           1.0002   -2.0716   -1.3564 H       1  LIG1          0.14
     62 H           2.1954   -2.5247   -0.1861 H       1  LIG1       0.15000000000000002
     63 H          -0.2547   -6.1333    0.9805 H       1  LIG1          0.14
     64 H          -1.1773   -4.6446    0.8849 H       1  LIG1          0.14
     65 H           3.0676   -0.5192   -0.9917 H       1  LIG1          0.13
     66 H           2.3012   -0.0531    0.5077 H       1  LIG1          0.14
     67 H           1.6841   -4.8323    1.9682 H       1  LIG1          0.14
     68 H           1.2902   -4.3376    0.3418 H       1  LIG1          0.14
     69 H          -1.2955    3.5419   -4.8519 H       1  LIG1          0.12
     70 H           2.0680    3.2617   -2.1644 H       1  LIG1          0.12
     71 H          -1.4429   -3.9431    4.4263 H       1  LIG1          0.13
     72 H           2.4720    2.0242   -0.1310 H       1  LIG1          0.12
     73 H          -1.3541   -2.8686    2.3182 H       1  LIG1          0.12
     74 H          -1.5200    0.9221    0.5463 H       1  LIG1          0.13
     75 H          -0.5600   -2.3671    0.2440 H       1  LIG1          0.14
     76 H          -0.4017   -6.2220    3.3295 H       1  LIG1          0.12
     77 H          -2.6266   -5.7590    3.6660 H       1  LIG1       0.42000000000000004
@<TRIPOS>BOND
     1    34     2    1
     2    35     2    1
     3     2    33    1
     4     2    18    1
     5    69    18    1
     6    18     1    1
     7    18     8    1
     8    32     1    1
     9    50     8    1
    10    48     7    1
    11     1    30    1
    12     1    31    1
    13     8     7    1
    14     8    51    1
    15    42     5    1
    16    44     5    1
    17    43     5    1
    18     7    49    1
    19     7     9    1
    20     5    27    1
    21    53     9    1
    22    70    19    1
    23     9    19    1
    24     9    52    1
    25    60    13    1
    26    59    13    1
    27    61    14    1
    28    19    22    1
    29    19     3    1
    30    27    13    1
    31    27    22    1
    32    27    16    1
    33    13    24    1
    34    38     3    1
    35    65    16    1
    36    22    72    1
    37    22    12    1
    38    16    14    1
    39    16    66    1
    40     3    37    1
    41     3    36    1
    42    14    62    1
    43    14    25    1
    44    75    25    1
    45    68    17    1
    46    24    74    1
    47    24    12    1
    48    24    21    1
    49    12    57    1
    50    12    58    1
    51    25    21    1
    52    25    28    1
    53    64    15    1
    54    63    15    1
    55    21    10    2
    56    17    15    1
    57    17    28    1
    58    17    67    1
    59    15    26    1
    60    46     6    1
    61    28     6    1
    62    28    23    1
    63    73    23    1
    64     6    47    1
    65     6    45    1
    66    10    54    1
    67    10    11    1
    68    29    26    1
    69    29    77    1
    70    26    76    1
    71    26    20    1
    72    23    11    1
    73    23    20    1
    74    11    55    1
    75    11    56    1
    76    20    71    1
    77    20     4    1
    78    41     4    1
    79     4    39    1
    80     4    40    1
