@<TRIPOS>MOLECULE
LOJUQFSPYHMHEO-SGHXUWJISA-N	6044821	-2212.7922346107925
 129 129 0 0 0
SMALL
MULLIKEN NwChem

@<TRIPOS>ATOM
      1 C           6.9895   -0.8450    0.1091 C.3     1  LIG1            -0.54
      2 C           7.4304   -2.5860   -1.6864 C.3     1  LIG1      -0.5300000000000002
      3 C           4.2561   -5.0875    2.8599 C.3     1  LIG1      -0.5300000000000002
      4 C           3.3177   -4.5045   -3.3113 C.3     1  LIG1      -0.5300000000000002
      5 C           5.1459    1.3100   -2.4127 C.3     1  LIG1        -0.54
      6 C           2.8994   -0.1962    2.1990 C.3     1  LIG1      -0.5499999999999998
      7 C          -2.8618   -2.4829   -0.5942 C.3     1  LIG1      -0.5300000000000002
      8 C          -0.2133    0.7048   -4.8569 C.3     1  LIG1      -0.5300000000000002
      9 C          -0.8520    4.4107    0.4368 C.3     1  LIG1        -0.54
     10 C          -4.5557   -0.0728    2.5095 C.3     1  LIG1      -0.5999999999999996
     11 C          -9.2286    3.1681    3.2096 C.3     1  LIG1       -0.23000000000000043
     12 C          -6.9879    5.9695    2.0194 C.3     1  LIG1       -0.23000000000000043
     13 C           6.9157   -3.1394    2.1634 C.3     1  LIG1      -0.3099999999999996
     14 C           3.1318   -4.8377   -0.0438 C.3     1  LIG1      -0.3200000000000003
     15 C           3.6785   -1.4294   -3.4461 C.3     1  LIG1      -0.33000000000000007
     16 C           3.2402    2.0204   -0.0853 C.3     1  LIG1      -0.3200000000000003
     17 C           0.1775   -1.3707    1.6530 C.3     1  LIG1      -0.3200000000000003
     18 C          -0.6915   -2.0154   -2.7035 C.3     1  LIG1      -0.3200000000000003
     19 C          -0.3902    2.7068   -2.4320 C.3     1  LIG1      -0.33000000000000007
     20 C           7.2119   -3.2848    0.6886 C.2     1  LIG1      -0.1900000000000004
     21 C           5.4152   -2.8451    2.4480 C.3     1  LIG1      -0.33999999999999986
     22 C           3.9862   -3.8341    0.6849 C.2     1  LIG1      -0.16999999999999993
     23 C           2.1699   -4.1721   -1.0580 C.3     1  LIG1      -0.3600000000000003
     24 C           3.0538   -2.2080   -2.3133 C.2     1  LIG1      -0.17999999999999972
     25 C           3.1963    0.0424   -3.4800 C.3     1  LIG1      -0.3600000000000003
     26 C           2.8863    1.2084   -1.3093 C.2     1  LIG1      -0.1900000000000004
     27 C           2.1455    1.9542    1.0027 C.3     1  LIG1      -0.3600000000000003
     28 C           0.6107    0.0133    1.2248 C.2     1  LIG1      -0.20000000000000018
     29 C          -1.2350   -1.7550    1.1998 C.3     1  LIG1      -0.34999999999999964
     30 C          -0.5285   -1.7884   -1.2176 C.2     1  LIG1      -0.1900000000000004
     31 C          -1.5388   -0.9241   -3.4088 C.3     1  LIG1      -0.33999999999999986
     32 C          -0.8829    1.2864   -2.4865 C.2     1  LIG1      -0.16999999999999993
     33 C          -1.5012    3.6639   -1.9118 C.3     1  LIG1      -0.33000000000000007
     34 C          -2.6519    2.6715    0.0633 C.2     1  LIG1      -0.20999999999999996
     35 C          -3.0080    2.3898    1.5098 C.3     1  LIG1      -0.41000000000000014
     36 C           7.2278   -2.2989   -0.2195 C.2     1  LIG1      0.17999999999999972
     37 C           4.4821   -3.9207    1.9284 C.2     1  LIG1      0.16000000000000014
     38 C           2.8619   -3.5353   -2.2469 C.2     1  LIG1      0.16999999999999993
     39 C           3.7015    0.8783   -2.3228 C.2     1  LIG1      0.16000000000000014
     40 C           1.8170    0.5501    1.4564 C.2     1  LIG1      0.1900000000000004
     41 C          -1.4638   -2.0011   -0.2788 C.2     1  LIG1      0.16000000000000014
     42 C          -0.8604    0.4322   -3.5215 C.2     1  LIG1      0.16000000000000014
     43 C          -1.7358    3.5330   -0.4181 C.2     1  LIG1      0.16999999999999993
     44 C          -5.2285    1.2367    2.1518 C.ar    1  LIG1       0.07000000000000028
     45 C          -4.5152    2.3773    1.7275 C.ar    1  LIG1       0.05999999999999961
     46 C          -6.6272    1.3129    2.2655 C.ar    1  LIG1       0.20999999999999996
     47 C          -5.2086    3.5707    1.4558 C.ar    1  LIG1       0.23000000000000043
     48 C          -7.3130    2.5082    2.0057 C.ar    1  LIG1       0.2599999999999998
     49 C          -6.6017    3.6502    1.6136 C.ar    1  LIG1       0.28000000000000025
     50 O          -7.4025    0.2513    2.6682 O.3     1  LIG1      -0.6899999999999995
     51 O          -4.5520    4.7078    1.0363 O.3     1  LIG1      -0.6999999999999993
     52 O          -8.6827    2.5126    2.0688 O.3     1  LIG1      -0.5500000000000007
     53 O          -7.3235    4.7751    1.3073 O.3     1  LIG1      -0.5500000000000007
     54 H           7.7422   -0.2057   -0.3728 H       1  LIG1       0.15000000000000002
     55 H           7.0091   -0.6368    1.1818 H       1  LIG1       0.16000000000000003
     56 H           6.0107   -0.5245   -0.2762 H       1  LIG1       0.17000000000000004
     57 H           7.5920   -3.6516   -1.8794 H       1  LIG1       0.16000000000000003
     58 H           6.5506   -2.2708   -2.2653 H       1  LIG1       0.17000000000000004
     59 H           8.2882   -2.0299   -2.0890 H       1  LIG1       0.15000000000000002
     60 H           3.6089   -5.8594    2.4357 H       1  LIG1       0.16000000000000003
     61 H           5.2101   -5.5656    3.1230 H       1  LIG1       0.16000000000000003
     62 H           3.8068   -4.7498    3.8048 H       1  LIG1       0.16000000000000003
     63 H           3.8425   -4.0206   -4.1393 H       1  LIG1       0.16000000000000003
     64 H           3.9974   -5.2556   -2.8866 H       1  LIG1       0.16000000000000003
     65 H           2.4628   -5.0589   -3.7237 H       1  LIG1       0.16000000000000003
     66 H           5.2798    2.0073   -3.2531 H       1  LIG1       0.16000000000000003
     67 H           5.4999    1.8108   -1.5075 H       1  LIG1       0.16000000000000003
     68 H           5.8128    0.4592   -2.6036 H       1  LIG1       0.17000000000000004
     69 H           2.8551    0.0211    3.2767 H       1  LIG1       0.16000000000000003
     70 H           2.8192   -1.2806    2.0814 H       1  LIG1       0.16000000000000003
     71 H           3.8986    0.0989    1.8595 H       1  LIG1       0.17000000000000004
     72 H          -3.5844   -1.6601   -0.4928 H       1  LIG1       0.17000000000000004
     73 H          -2.9594   -2.8826   -1.6067 H       1  LIG1       0.16000000000000003
     74 H          -3.1785   -3.2665    0.1079 H       1  LIG1       0.15000000000000002
     75 H          -0.9755    0.7907   -5.6445 H       1  LIG1       0.16000000000000003
     76 H           0.3958    1.6122   -4.8690 H       1  LIG1       0.16000000000000003
     77 H           0.4364   -0.1328   -5.1446 H       1  LIG1       0.16000000000000003
     78 H          -1.1652    5.4607    0.3610 H       1  LIG1       0.17000000000000004
     79 H          -0.8492    4.1335    1.4935 H       1  LIG1       0.17000000000000004
     80 H           0.1835    4.3710    0.0782 H       1  LIG1       0.18000000000000005
     81 H          -5.0507   -0.5508    3.3645 H       1  LIG1       0.17000000000000004
     82 H          -4.5586   -0.7930    1.6781 H       1  LIG1       0.18999999999999995
     83 H          -3.5151    0.0612    2.8081 H       1  LIG1       0.18999999999999995
     84 H          -8.8533    2.7231    4.1414 H       1  LIG1       0.16000000000000003
     85 H          -9.0033    4.2412    3.2004 H       1  LIG1       0.17000000000000004
     86 H         -10.3112    3.0267    3.1556 H       1  LIG1       0.17000000000000004
     87 H          -7.0240    5.8017    3.1054 H       1  LIG1       0.16000000000000003
     88 H          -5.9978    6.3407    1.7430 H       1  LIG1       0.17000000000000004
     89 H          -7.7510    6.7020    1.7435 H       1  LIG1       0.17000000000000004
     90 H           7.2151   -4.0553    2.6873 H       1  LIG1          0.14
     91 H           7.5109   -2.3280    2.6039 H       1  LIG1       0.15000000000000002
     92 H           3.7743   -5.5558   -0.5776 H       1  LIG1       0.15000000000000002
     93 H           2.5383   -5.4330    0.6597 H       1  LIG1       0.15000000000000002
     94 H           4.7765   -1.4448   -3.3756 H       1  LIG1       0.17000000000000004
     95 H           3.4373   -1.8957   -4.4096 H       1  LIG1       0.15000000000000002
     96 H           4.1967    1.6858    0.3366 H       1  LIG1       0.16000000000000003
     97 H           3.3919    3.0759   -0.3560 H       1  LIG1       0.15000000000000002
     98 H           0.8909   -2.1246    1.2927 H       1  LIG1       0.16000000000000003
     99 H           0.2115   -1.4401    2.7501 H       1  LIG1       0.15000000000000002
    100 H           0.3010   -2.0695   -3.1652 H       1  LIG1       0.15000000000000002
    101 H          -1.1689   -2.9874   -2.8875 H       1  LIG1          0.14
    102 H           0.4886    2.7915   -1.7766 H       1  LIG1       0.16000000000000003
    103 H          -0.0689    3.0498   -3.4201 H       1  LIG1       0.15000000000000002
    104 H           7.3543   -4.3031    0.3285 H       1  LIG1          0.12
    105 H           5.2824   -2.7161    3.5319 H       1  LIG1          0.13
    106 H           5.1651   -1.8887    1.9810 H       1  LIG1       0.16000000000000003
    107 H           4.2614   -2.9611    0.0954 H       1  LIG1          0.12
    108 H           1.4689   -4.9359   -1.4238 H       1  LIG1          0.14
    109 H           1.5657   -3.4274   -0.5305 H       1  LIG1       0.16000000000000003
    110 H           2.7217   -1.6025   -1.4712 H       1  LIG1          0.13
    111 H           3.5275    0.4920   -4.4270 H       1  LIG1          0.14
    112 H           2.1011    0.0502   -3.4882 H       1  LIG1       0.16000000000000003
    113 H           1.8534    0.8659   -1.3632 H       1  LIG1          0.14
    114 H           2.4737    2.5576    1.8616 H       1  LIG1          0.14
    115 H           1.2353    2.4273    0.6155 H       1  LIG1       0.16000000000000003
    116 H          -0.1335    0.6111    0.6957 H       1  LIG1          0.14
    117 H          -1.5415   -2.6625    1.7431 H       1  LIG1          0.14
    118 H          -1.9405   -0.9776    1.5336 H       1  LIG1       0.16000000000000003
    119 H           0.4320   -1.3895   -0.9074 H       1  LIG1          0.14
    120 H          -1.7948   -1.2801   -4.4160 H       1  LIG1          0.14
    121 H          -2.4855   -0.8207   -2.8672 H       1  LIG1       0.15000000000000002
    122 H          -1.3693    0.9414   -1.5758 H       1  LIG1          0.13
    123 H          -1.2136    4.6989   -2.1420 H       1  LIG1       0.15000000000000002
    124 H          -2.4245    3.4588   -2.4665 H       1  LIG1       0.15000000000000002
    125 H          -3.2373    2.1019   -0.6581 H       1  LIG1          0.14
    126 H          -2.5672    1.4281    1.7896 H       1  LIG1       0.18999999999999995
    127 H          -2.5547    3.1390    2.1687 H       1  LIG1       0.17000000000000004
    128 H          -6.8816   -0.5609    2.5993 H       1  LIG1       0.44999999999999996
    129 H          -3.8056    4.4360    0.4691 H       1  LIG1       0.43000000000000005
@<TRIPOS>BOND
     1    75     8    1
     2    77     8    1
     3    76     8    1
     4     8    42    1
     5   111    25    1
     6   120    31    1
     7    95    15    1
     8    63     4    1
     9    65     4    1
    10    42    31    1
    11    42    32    2
    12   112    25    1
    13    25    15    1
    14    25    39    1
    15    15    94    1
    16    15    24    1
    17   103    19    1
    18    31   121    1
    19    31    18    1
    20     4    64    1
    21     4    38    1
    22    66     5    1
    23   100    18    1
    24   101    18    1
    25    18    30    1
    26    68     5    1
    27    32    19    1
    28    32   122    1
    29   124    33    1
    30    19    33    1
    31    19   102    1
    32     5    39    1
    33     5    67    1
    34    39    26    2
    35    24    38    2
    36    24   110    1
    37    58     2    1
    38    38    23    1
    39   123    33    1
    40    59     2    1
    41    33    43    1
    42    57     2    1
    43     2    36    1
    44    73     7    1
    45   108    23    1
    46   113    26    1
    47    26    16    1
    48    30   119    1
    49    30    41    2
    50    23   109    1
    51    23    14    1
    52   125    34    1
    53     7    72    1
    54     7    41    1
    55     7    74    1
    56    92    14    1
    57    43    34    2
    58    43     9    1
    59    54     1    1
    60    97    16    1
    61    41    29    1
    62    56     1    1
    63    36     1    1
    64    36    20    2
    65    16    96    1
    66    16    27    1
    67    14    93    1
    68    14    22    1
    69    34    35    1
    70    80     9    1
    71   107    22    1
    72     1    55    1
    73   104    20    1
    74    78     9    1
    75     9    79    1
    76   129    51    1
    77   115    27    1
    78    22    37    2
    79    20    13    1
    80   116    28    1
    81    27    40    1
    82    27   114    1
    83    51    47    1
    84    29   118    1
    85    29    17    1
    86    29   117    1
    87    28    40    2
    88    28    17    1
    89    98    17    1
    90    53    49    1
    91    53    12    1
    92    47    49   ar
    93    47    45   ar
    94    40     6    1
    95    35    45    1
    96    35   126    1
    97    35   127    1
    98    49    48   ar
    99    17    99    1
   100    82    10    1
   101    45    44   ar
   102    88    12    1
   103    89    12    1
   104    71     6    1
   105    37    21    1
   106    37     3    1
   107   106    21    1
   108    48    52    1
   109    48    46   ar
   110    12    87    1
   111    52    11    1
   112    70     6    1
   113    44    46   ar
   114    44    10    1
   115    13    21    1
   116    13    91    1
   117    13    90    1
   118     6    69    1
   119    46    50    1
   120    60     3    1
   121    21   105    1
   122    10    83    1
   123    10    81    1
   124   128    50    1
   125     3    61    1
   126     3    62    1
   127    86    11    1
   128    85    11    1
   129    11    84    1
