@<TRIPOS>MOLECULE
LQQCGEGRINLHDP-UHFFFAOYSA-L	6044823	-831.7990236674076
 9 8 0 0 0
SMALL
MULLIKEN NwChem

@<TRIPOS>ATOM
      1 C          -1.0134    0.6821   -1.1133 C.2     1  LIG1       0.6699999999999999
      2 O          -2.0687    1.3199   -1.2818 O.co2   1  LIG1      -0.6400000000000006
      3 O          -0.2582    0.1811   -2.0085 O.co2   1  LIG1      -0.6600000000000001
      4 O           0.0575   -1.8715    0.9803 O.2     1  LIG1      -0.7100000000000009
      5 O           1.6962   -0.3833   -0.3931 O.3     1  LIG1      -0.7699999999999996
      6 O           1.1758    0.2445    2.0514 O.3     1  LIG1      -0.7100000000000009
      7 O          -0.6208    0.5388    0.2365 O.3     1  LIG1      -0.5999999999999996
      8 P           0.6089   -0.4686    0.8456 P.3     1  LIG1       0.9800000000000004
      9 H           1.0979   -0.2409   -1.1926 H       1  LIG1       0.43000000000000005
@<TRIPOS>BOND
     1     3     1   ar
     2     2     1   ar
     3     9     5    1
     4     1     7    1
     5     5     8    1
     6     7     8    1
     7     8     4    2
     8     8     6    1
