@<TRIPOS>MOLECULE
LQQZHLHCFSCJCU-UHFFFAOYSA-L	6044824	-1204.3806479396337
 35 34 0 0 0
SMALL
MULLIKEN NwChem

@<TRIPOS>ATOM
      1 C          -1.8319    3.1502   -3.6007 C.3     1  LIG1      -0.5899999999999999
      2 C          -0.1073    0.9318   -1.2812 C.3     1  LIG1      -0.2699999999999996
      3 C          -1.6157    0.7307   -1.0478 C.3     1  LIG1      -0.2999999999999998
      4 C           0.7297    1.0875    0.0068 C.3     1  LIG1      -0.2699999999999996
      5 C          -2.2993    1.8398   -0.2363 C.3     1  LIG1        -0.25
      6 C           0.4530    0.0333    1.0950 C.3     1  LIG1      -0.29000000000000004
      7 C          -2.1545    3.2753   -0.7565 C.3     1  LIG1      -0.41999999999999993
      8 C           0.6453   -1.4425    0.6622 C.3     1  LIG1       -0.15000000000000036
      9 C           2.0933   -1.9260    0.8969 C.3     1  LIG1       0.04999999999999982
     10 C          -0.5374   -2.3185    1.2264 C.2     1  LIG1       0.4800000000000004
     11 C           2.5936   -2.0800    2.3831 C.2     1  LIG1       0.5199999999999996
     12 O           2.3396   -3.1462    0.2034 O.3     1  LIG1      -0.7300000000000004
     13 O          -1.6871   -1.9329    0.8226 O.co2   1  LIG1      -0.6699999999999999
     14 O          -0.2804   -3.2750    1.9836 O.co2   1  LIG1      -0.6600000000000001
     15 O           3.0995   -3.2145    2.6374 O.co2   1  LIG1      -0.6799999999999997
     16 O           2.5481   -1.0685    3.1273 O.co2   1  LIG1      -0.6500000000000004
     17 S          -3.0367    3.6898   -2.3327 S.3     1  LIG1      -0.010000000000001563
     18 H          -2.2284    3.4608   -4.5733 H       1  LIG1       0.18999999999999995
     19 H          -1.6977    2.0675   -3.5917 H       1  LIG1       0.19999999999999996
     20 H          -0.8614    3.6314   -3.4428 H       1  LIG1       0.18999999999999995
     21 H           0.2558    0.0561   -1.8328 H       1  LIG1          0.13
     22 H           0.0814    1.7991   -1.9378 H       1  LIG1          0.13
     23 H          -1.7523   -0.2203   -0.5023 H       1  LIG1       0.16000000000000003
     24 H          -2.1303    0.6250   -2.0165 H       1  LIG1          0.12
     25 H           1.7939    1.0641   -0.2732 H       1  LIG1          0.12
     26 H           0.5537    2.0946    0.4273 H       1  LIG1          0.13
     27 H          -1.8827    1.8328    0.7800 H       1  LIG1       0.15000000000000002
     28 H          -3.3678    1.6091   -0.1318 H       1  LIG1          0.14
     29 H           1.1080    0.2146    1.9540 H       1  LIG1          0.13
     30 H          -0.5821    0.1461    1.4352 H       1  LIG1          0.13
     31 H          -1.1013    3.5471   -0.8898 H       1  LIG1       0.18999999999999995
     32 H          -2.5785    3.9844   -0.0342 H       1  LIG1       0.18000000000000005
     33 H           0.5007   -1.5123   -0.4275 H       1  LIG1          0.12
     34 H           2.7546   -1.1410    0.4670 H       1  LIG1       0.09999999999999998
     35 H           2.6188   -3.6952    0.9816 H       1  LIG1           0.39
@<TRIPOS>BOND
     1    18     1    1
     2     1    19    1
     3     1    20    1
     4     1    17    1
     5    17     7    1
     6    24     3    1
     7    22     2    1
     8    21     2    1
     9     2     3    1
    10     2     4    1
    11     3    23    1
    12     3     5    1
    13    31     7    1
    14     7     5    1
    15     7    32    1
    16    33     8    1
    17    25     4    1
    18     5    28    1
    19     5    27    1
    20     4    26    1
    21     4     6    1
    22    12     9    1
    23    12    35    1
    24    34     9    1
    25     8     9    1
    26     8     6    1
    27     8    10    1
    28    13    10   ar
    29     9    11    1
    30     6    30    1
    31     6    29    1
    32    10    14   ar
    33    11    15   ar
    34    11    16   ar
