@<TRIPOS>MOLECULE
LQTWZQSULMRBEE-UHFFFAOYSA-N	6044825	-1432.5296149793162
 48 47 0 0 0
SMALL
MULLIKEN NwChem

@<TRIPOS>ATOM
      1 C           2.7664   -4.9401    1.4730 C.3     1  UNK1      -0.45999999999999996
      2 C           2.4971   -3.5472    2.0538 C.3     1  UNK1      -0.2599999999999998
      3 C           3.3699   -2.4377    1.4432 C.3     1  UNK1      -0.2699999999999996
      4 C           3.2286   -2.2578   -0.0798 C.3     1  UNK1      -0.28000000000000025
      5 C           1.7966   -1.9986   -0.5763 C.3     1  UNK1      -0.29000000000000004
      6 C           2.0459    0.9223   -1.5521 C.3     1  UNK1      -0.33999999999999986
      7 C           0.9157    0.6828   -2.4992 C.3     1  UNK1       0.07000000000000028
      8 CA         -3.7060    0.8746   -0.8783 C.3     2  GLY2       -0.21999999999999975
      9 C          -0.5913    1.6956    1.4263 C.3     1  UNK1       -0.4500000000000002
     10 C          -1.5864    2.6384    0.6943 C.3     1  UNK1       -0.019999999999999574
     11 C           1.0496   -0.8253    0.0879 C.3     1  UNK1       0.1299999999999999
     12 C           1.7853    0.5198   -0.0615 C.3     1  UNK1       -0.28000000000000025
     13 C          -3.2597   -0.3361   -0.0770 C.2     2  GLY2       0.5999999999999996
     14 C          -1.7111    2.2418   -0.7797 C.2     1  UNK1       0.5199999999999996
     15 N          -2.7964    2.6931    1.5089 N.3     1  UNK1        -0.79
     16 N          -2.5360    1.5331   -1.4527 N.2     2  GLY2      -0.5300000000000002
     17 O           1.3898    0.1381   -3.5997 O.3     1  UNK1      -0.4800000000000004
     18 O          -0.2917   -0.7880   -0.3992 O.3     1  UNK1      -0.6899999999999995
     19 OXT        -3.1386   -0.3643    1.1333 O.2     2  GLY2         -0.5
     20 O          -2.9212   -1.3608   -0.8799 O.3     2  GLY2      -0.5700000000000003
     21 O          -0.6508    2.7569   -1.4497 O.2     1  UNK1      -0.6199999999999992
     22 S           1.2052    1.8759    1.0715 S.3     1  UNK1      0.019999999999999574
     23 H           2.5075   -4.9930    0.4091 H       1  UNK1       0.15000000000000002
     24 H           2.1791   -5.7053    1.9928 H       1  UNK1          0.14
     25 H           3.8262   -5.2083    1.5694 H       1  UNK1          0.14
     26 H           1.4347   -3.2987    1.9275 H       1  UNK1          0.14
     27 H           2.6723   -3.5667    3.1373 H       1  UNK1          0.13
     28 H           3.1425   -1.4896    1.9497 H       1  UNK1          0.14
     29 H           4.4241   -2.6525    1.6675 H       1  UNK1          0.13
     30 H           3.8863   -1.4377   -0.3993 H       1  UNK1       0.15000000000000002
     31 H           3.6094   -3.1514   -0.5902 H       1  UNK1          0.14
     32 H           1.8096   -1.8424   -1.6626 H       1  UNK1          0.14
     33 H           1.1744   -2.8865   -0.4110 H       1  UNK1       0.15000000000000002
     34 H           2.1936    2.0127   -1.5730 H       1  UNK1       0.20999999999999996
     35 H           2.9763    0.4519   -1.9052 H       1  UNK1       0.18000000000000005
     36 H           0.6498    0.0064   -4.2209 H       1  UNK1          0.48
     37 HA1        -4.3077    1.5160   -0.2296 H       2  GLY2       0.18000000000000005
     38 HA2        -4.3316    0.5371   -1.7108 H       2  GLY2       0.18000000000000005
     39 H          -0.8895    0.6549    1.3069 H       1  UNK1       0.21999999999999997
     40 H          -0.6732    1.9478    2.4877 H       1  UNK1       0.18999999999999995
     41 H          -1.1457    3.6423    0.6837 H       1  UNK1       0.17000000000000004
     42 H           0.9558   -1.0258    1.1605 H       1  UNK1       0.16000000000000003
     43 H           2.7849    0.3670    0.3564 H       1  UNK1       0.20999999999999996
     44 H          -3.5114    3.2635    1.0643 H       1  UNK1       0.33999999999999997
     45 H          -3.1735    1.7586    1.6590 H       1  UNK1       0.33999999999999997
     46 H          -0.3401   -0.2483   -1.2195 H       1  UNK1       0.41000000000000003
     47 H          -2.3536   -1.9536   -0.3510 H       2  GLY2       0.43999999999999995
     48 H          -0.4789    2.1361   -2.1998 H       1  UNK1            0.4
@<TRIPOS>BOND
     1    36    17    1
     2    17     7    1
     3     7     6    1
     4    48    21    1
     5    35     6    1
     6    38     8    1
     7    32     5    1
     8    34     6    1
     9     6    12    1
    10    16     8    1
    11    16    14    2
    12    21    14    1
    13    46    18    1
    14    20    47    1
    15    20    13    1
    16     8    37    1
    17     8    13    1
    18    14    10    1
    19    31     4    1
    20     5    33    1
    21     5     4    1
    22     5    11    1
    23    30     4    1
    24    18    11    1
    25     4     3    1
    26    13    19    2
    27    12    11    1
    28    12    43    1
    29    12    22    1
    30    11    42    1
    31    23     1    1
    32    41    10    1
    33    10     9    1
    34    10    15    1
    35    44    15    1
    36    22     9    1
    37    39     9    1
    38     9    40    1
    39     3    29    1
    40     3    28    1
    41     3     2    1
    42     1    25    1
    43     1    24    1
    44     1     2    1
    45    15    45    1
    46    26     2    1
    47     2    27    1
