@<TRIPOS>MOLECULE
LQUHZVLTTWMBTO-UPHRSURJSA-M	6044826	-931.1891253985193
 54 53 0 0 0
SMALL
MULLIKEN NwChem

@<TRIPOS>ATOM
      1 C           0.9676    0.2706   -0.4312 C.2     1  LIG1      -0.1299999999999999
      2 C           0.3306   -0.4967    0.4625 C.2     1  LIG1      -0.1299999999999999
      3 C           0.3463    1.3192   -1.3211 C.3     1  LIG1      -0.3200000000000003
      4 C          -1.1457   -0.5120    0.7607 C.3     1  LIG1      -0.3200000000000003
      5 C           0.5446    2.7632   -0.8084 C.3     1  LIG1      -0.2599999999999998
      6 C          -1.8880   -1.6979    0.1017 C.3     1  LIG1      -0.2599999999999998
      7 C           2.0090    3.1682   -0.5695 C.3     1  LIG1      -0.2699999999999996
      8 C          -1.3374   -3.0883    0.4632 C.3     1  LIG1      -0.2599999999999998
      9 C           2.9349    3.0207   -1.7896 C.3     1  LIG1      -0.2699999999999996
     10 C          -1.2852   -3.4027    1.9677 C.3     1  LIG1      -0.28000000000000025
     11 C           2.4780    3.7773   -3.0486 C.3     1  LIG1      -0.2699999999999996
     12 C          -2.6287   -3.2721    2.7066 C.3     1  LIG1      -0.2599999999999998
     13 C           2.2739    5.2919   -2.8619 C.3     1  LIG1      -0.29000000000000004
     14 C          -3.7623   -4.1563    2.1517 C.3     1  LIG1        -0.25
     15 C           3.5040    6.0627   -2.3523 C.3     1  LIG1      -0.2699999999999996
     16 C          -3.3639   -5.6334    1.9936 C.3     1  LIG1       -0.33999999999999986
     17 C           4.7480    5.9021   -3.2322 C.3     1  LIG1       -0.04999999999999982
     18 C          -2.7070   -6.1774    3.3139 C.2     1  LIG1       0.5300000000000002
     19 O           4.5333    6.3070   -4.5837 O.3     1  LIG1      -0.6699999999999999
     20 O          -3.4356   -6.0819    4.3353 O.co2   1  LIG1      -0.6899999999999995
     21 O          -1.5246   -6.5960    3.2071 O.co2   1  LIG1      -0.6799999999999997
     22 H           2.0475    0.1517   -0.5299 H       1  LIG1          0.13
     23 H           0.9222   -1.2206    1.0226 H       1  LIG1          0.13
     24 H           0.7764    1.2328   -2.3293 H       1  LIG1       0.15000000000000002
     25 H          -0.7276    1.1365   -1.4364 H       1  LIG1       0.15000000000000002
     26 H          -1.2843   -0.5723    1.8478 H       1  LIG1       0.15000000000000002
     27 H          -1.6155    0.4266    0.4415 H       1  LIG1          0.14
     28 H           0.0770    3.4595   -1.5192 H       1  LIG1          0.14
     29 H          -0.0025    2.8723    0.1370 H       1  LIG1          0.13
     30 H          -2.9461   -1.6399    0.3881 H       1  LIG1          0.14
     31 H          -1.8493   -1.5658   -0.9895 H       1  LIG1          0.13
     32 H           2.0336    4.2078   -0.2145 H       1  LIG1          0.14
     33 H           2.4150    2.5601    0.2485 H       1  LIG1          0.13
     34 H          -1.9595   -3.8410   -0.0368 H       1  LIG1          0.14
     35 H          -0.3297   -3.1966    0.0362 H       1  LIG1          0.13
     36 H           3.9429    3.3537   -1.5074 H       1  LIG1          0.14
     37 H           3.0347    1.9574   -2.0433 H       1  LIG1          0.14
     38 H          -0.9251   -4.4282    2.1132 H       1  LIG1          0.13
     39 H          -0.5467   -2.7443    2.4525 H       1  LIG1          0.13
     40 H           3.2124    3.5971   -3.8477 H       1  LIG1          0.14
     41 H           1.5373    3.3440   -3.4115 H       1  LIG1          0.14
     42 H          -2.4702   -3.5680    3.7496 H       1  LIG1          0.12
     43 H          -2.9585   -2.2200    2.7206 H       1  LIG1          0.13
     44 H           1.9558    5.7295   -3.8190 H       1  LIG1          0.13
     45 H           1.4404    5.4647   -2.1702 H       1  LIG1       0.15000000000000002
     46 H          -4.5960   -4.1100    2.8626 H       1  LIG1          0.12
     47 H          -4.1276   -3.7473    1.1941 H       1  LIG1          0.12
     48 H           3.2539    7.1299   -2.2945 H       1  LIG1          0.14
     49 H           3.7569    5.7401   -1.3331 H       1  LIG1          0.14
     50 H          -4.2698   -6.2171    1.7713 H       1  LIG1          0.12
     51 H          -2.6695   -5.7681    1.1543 H       1  LIG1       0.10999999999999999
     52 H           5.5536    6.5441   -2.8598 H       1  LIG1       0.15000000000000002
     53 H           5.1169    4.8647   -3.1878 H       1  LIG1          0.14
     54 H           3.9162    5.6729   -4.9794 H       1  LIG1       0.43000000000000005
@<TRIPOS>BOND
     1    54    19    1
     2    19    17    1
     3    40    11    1
     4    44    13    1
     5    41    11    1
     6    17    53    1
     7    17    52    1
     8    17    15    1
     9    11    13    1
    10    11     9    1
    11    13    15    1
    12    13    45    1
    13    15    48    1
    14    15    49    1
    15    24     3    1
    16    37     9    1
    17     9    36    1
    18     9     7    1
    19    28     5    1
    20    25     3    1
    21     3     5    1
    22     3     1    1
    23    31     6    1
    24     5     7    1
    25     5    29    1
    26     7    32    1
    27     7    33    1
    28    22     1    1
    29     1     2    2
    30    34     8    1
    31    35     8    1
    32     6    30    1
    33     6     8    1
    34     6     4    1
    35    27     4    1
    36     2     4    1
    37     2    23    1
    38     8    10    1
    39     4    26    1
    40    51    16    1
    41    47    14    1
    42    50    16    1
    43    10    38    1
    44    10    39    1
    45    10    12    1
    46    16    14    1
    47    16    18    1
    48    14    12    1
    49    14    46    1
    50    12    43    1
    51    12    42    1
    52    21    18   ar
    53    18    20   ar
