@<TRIPOS>MOLECULE
LQZZUXJYWNFBMV-UHFFFAOYSA-N	6044827	-547.8634489356239
 39 38 0 0 0
SMALL
MULLIKEN NwChem

@<TRIPOS>ATOM
      1 C           2.5340   -2.7115   -4.1895 C.3     1  LIG1      -0.45999999999999996
      2 C           2.4654   -2.9392   -2.6750 C.3     1  LIG1      -0.2599999999999998
      3 C           2.8415   -1.7032   -1.8404 C.3     1  LIG1      -0.2599999999999998
      4 C           1.9711   -0.4574   -2.0836 C.3     1  LIG1      -0.2699999999999996
      5 C           0.4616   -0.6643   -1.8701 C.3     1  LIG1      -0.2699999999999996
      6 C           0.0651   -1.1879   -0.4785 C.3     1  LIG1      -0.2699999999999996
      7 C           0.5333   -0.3195    0.7024 C.3     1  LIG1      -0.2699999999999996
      8 C           0.0671    1.1459    0.6578 C.3     1  LIG1      -0.2699999999999996
      9 C          -1.4566    1.3412    0.5727 C.3     1  LIG1      -0.2699999999999996
     10 C          -2.2654    0.6735    1.6998 C.3     1  LIG1      -0.28000000000000025
     11 C          -1.8736    1.0895    3.1279 C.3     1  LIG1      -0.2699999999999996
     12 C          -1.9605    2.5974    3.3857 C.3     1  LIG1       -0.04999999999999982
     13 O          -3.2622    3.1294    3.1501 O.3     1  LIG1      -0.6699999999999999
     14 H           1.8005   -1.9674   -4.5202 H       1  LIG1       0.15000000000000002
     15 H           2.3338   -3.6383   -4.7393 H       1  LIG1          0.14
     16 H           3.5270   -2.3523   -4.4883 H       1  LIG1          0.14
     17 H           1.4568   -3.2781   -2.4029 H       1  LIG1          0.14
     18 H           3.1415   -3.7609   -2.4031 H       1  LIG1          0.13
     19 H           2.8042   -1.9714   -0.7760 H       1  LIG1          0.14
     20 H           3.8886   -1.4410   -2.0488 H       1  LIG1          0.13
     21 H           2.3258    0.3472   -1.4259 H       1  LIG1          0.14
     22 H           2.1313   -0.0940   -3.1072 H       1  LIG1          0.13
     23 H          -0.0505    0.2881   -2.0620 H       1  LIG1          0.14
     24 H           0.0786   -1.3627   -2.6261 H       1  LIG1          0.13
     25 H          -1.0276   -1.2926   -0.4441 H       1  LIG1          0.14
     26 H           0.4639   -2.2018   -0.3430 H       1  LIG1          0.13
     27 H           0.1881   -0.7848    1.6354 H       1  LIG1          0.14
     28 H           1.6300   -0.3328    0.7537 H       1  LIG1          0.14
     29 H           0.4524    1.6616    1.5474 H       1  LIG1          0.14
     30 H           0.5302    1.6504   -0.2004 H       1  LIG1          0.14
     31 H          -1.6647    2.4209    0.5555 H       1  LIG1          0.14
     32 H          -1.8216    0.9581   -0.3892 H       1  LIG1          0.14
     33 H          -3.3314    0.8935    1.5493 H       1  LIG1          0.13
     34 H          -2.1775   -0.4167    1.6152 H       1  LIG1          0.14
     35 H          -2.5356    0.5776    3.8376 H       1  LIG1          0.14
     36 H          -0.8507    0.7578    3.3526 H       1  LIG1          0.14
     37 H          -1.7449    2.8067    4.4387 H       1  LIG1       0.15000000000000002
     38 H          -1.2029    3.1327    2.7902 H       1  LIG1          0.14
     39 H          -3.4245    3.0918    2.1956 H       1  LIG1       0.43000000000000005
@<TRIPOS>BOND
     1    15     1    1
     2    14     1    1
     3    16     1    1
     4     1     2    1
     5    22     4    1
     6     2    18    1
     7     2    17    1
     8     2     3    1
     9    24     5    1
    10     4     5    1
    11     4     3    1
    12     4    21    1
    13    23     5    1
    14    20     3    1
    15     5     6    1
    16     3    19    1
    17     6    25    1
    18     6    26    1
    19     6     7    1
    20    32     9    1
    21    30     8    1
    22    31     9    1
    23     9     8    1
    24     9    10    1
    25     8     7    1
    26     8    29    1
    27     7    28    1
    28     7    27    1
    29    33    10    1
    30    34    10    1
    31    10    11    1
    32    39    13    1
    33    38    12    1
    34    11    36    1
    35    11    12    1
    36    11    35    1
    37    13    12    1
    38    12    37    1
