@<TRIPOS>MOLECULE
LRFVTYWOQMYALW-UHFFFAOYSA-N	6044828	-562.3529745410592
 15 16 0 0 0
SMALL
MULLIKEN NwChem

@<TRIPOS>ATOM
      1 C          -2.7385    0.0589   -0.0028 C.ar    1  LIG1       0.23000000000000043
      2 C          -0.7245   -0.6106    0.0001 C.ar    1  LIG1       0.17999999999999972
      3 C          -0.6517    0.7956   -0.0017 C.ar    1  LIG1          0.54
      4 C           0.5213   -1.2538    0.0018 C.ar    1  LIG1       0.5099999999999998
      5 C           1.5471    0.8100    0.0014 C.ar    1  LIG1       0.6399999999999997
      6 N          -2.0410   -1.0459   -0.0008 N.ar    1  LIG1      -0.5499999999999998
      7 N          -1.9608    1.2069   -0.0035 N.ar    1  LIG1      -0.6500000000000004
      8 N           0.4475    1.5551   -0.0013 N.ar    1  LIG1      -0.5800000000000001
      9 N           1.6457   -0.5374    0.0026 N.ar    1  LIG1      -0.5999999999999996
     10 O           0.6137   -2.5892    0.0023 O.3     1  LIG1      -0.6199999999999992
     11 O           2.7124    1.4851    0.0034 O.3     1  LIG1      -0.6300000000000008
     12 H          -3.8193    0.1144   -0.0040 H       1  LIG1       0.20999999999999996
     13 H          -2.2754    2.1666   -0.0045 H       1  LIG1          0.39
     14 H           1.5657   -2.7993    0.0017 H       1  LIG1       0.45999999999999996
     15 H           3.4149    0.8127    0.0089 H       1  LIG1       0.44999999999999996
@<TRIPOS>BOND
     1    13     7    1
     2    12     1    1
     3     7     1   ar
     4     7     3   ar
     5     1     6   ar
     6     3     8   ar
     7     3     2   ar
     8     8     5   ar
     9     6     2   ar
    10     2     4   ar
    11     5     9   ar
    12     5    11    1
    13    14    10    1
    14     4    10    1
    15     4     9   ar
    16    11    15    1
