@<TRIPOS>MOLECULE
LRHPLDYGYMQRHN-UHFFFAOYSA-N	6044829	-233.56190812559572
 15 14 0 0 0
SMALL
MULLIKEN NwChem

@<TRIPOS>ATOM
      1 C           0.5995    1.6349   -0.9520 C.3     1  LIG1      -0.45999999999999996
      2 C           0.1337    0.2062   -1.2602 C.3     1  LIG1      -0.2699999999999996
      3 C           0.5857   -0.8425   -0.2311 C.3     1  LIG1      -0.2699999999999996
      4 C           0.0468   -0.6108    1.1849 C.3     1  LIG1       -0.04999999999999982
      5 O          -1.3779   -0.6024    1.2443 O.3     1  LIG1      -0.6699999999999999
      6 H           0.1826    2.0101   -0.0093 H       1  LIG1       0.15000000000000002
      7 H           0.2947    2.3294   -1.7429 H       1  LIG1       0.15000000000000002
      8 H           1.6922    1.6825   -0.8673 H       1  LIG1       0.15000000000000002
      9 H          -0.9625    0.1807   -1.3385 H       1  LIG1          0.14
     10 H           0.5063   -0.0887   -2.2493 H       1  LIG1          0.14
     11 H           0.2578   -1.8351   -0.5646 H       1  LIG1          0.14
     12 H           1.6846   -0.8642   -0.1852 H       1  LIG1          0.14
     13 H           0.3615   -1.4318    1.8377 H       1  LIG1       0.15000000000000002
     14 H           0.4649    0.3155    1.6111 H       1  LIG1          0.14
     15 H          -1.6854    0.2037    0.8033 H       1  LIG1       0.43000000000000005
@<TRIPOS>BOND
     1    10     2    1
     2     7     1    1
     3     9     2    1
     4     2     1    1
     5     2     3    1
     6     1     8    1
     7     1     6    1
     8    11     3    1
     9     3    12    1
    10     3     4    1
    11    15     5    1
    12     4     5    1
    13     4    14    1
    14     4    13    1
