@<TRIPOS>MOLECULE
LRSASMSXMSNRBT-UHFFFAOYSA-N	6044830	-434.1392446020059
 16 16 0 0 0
SMALL
MULLIKEN NwChem

@<TRIPOS>ATOM
      1 C           0.5240    0.7931    2.5922 C.3     1  LIG1      -0.5599999999999996
      2 C           0.1262   -1.1301    1.0100 C.3     1  LIG1       -0.04999999999999982
      3 C           0.2255    0.2103    1.2408 C.2     1  LIG1       0.1200000000000001
      4 C           0.0330    1.1195    0.1163 C.2     1  LIG1       0.4500000000000002
      5 C          -0.3192   -0.9189   -1.1927 C.2     1  LIG1       0.7400000000000002
      6 N           0.0729    2.4023    0.0427 N.pl3   1  LIG1        -0.75
      7 N          -0.1462   -1.7294   -0.1989 N.2     1  LIG1        -0.54
      8 N          -0.2440    0.4382   -1.0921 N.pl3   1  LIG1      -0.6699999999999999
      9 O          -0.5902   -1.4522   -2.4024 O.2     1  LIG1      -0.6199999999999992
     10 H           0.6389    0.0061    3.3436 H       1  LIG1       0.18000000000000005
     11 H          -0.2801    1.4630    2.9264 H       1  LIG1       0.17000000000000004
     12 H           1.4495    1.3848    2.5789 H       1  LIG1       0.18000000000000005
     13 H           0.2680   -1.8287    1.8324 H       1  LIG1       0.17000000000000004
     14 H           0.2780    2.8073    0.9557 H       1  LIG1       0.31999999999999995
     15 H          -0.3767    1.0539   -1.8876 H       1  LIG1          0.38
     16 H          -0.7160   -0.7611   -3.0709 H       1  LIG1           0.47
@<TRIPOS>BOND
     1    16     9    1
     2     9     5    1
     3    15     8    1
     4     5     8    1
     5     5     7    2
     6     8     4    1
     7     7     2    1
     8     6     4    1
     9     6    14    1
    10     4     3    2
    11     2     3    1
    12     2    13    1
    13     3     1    1
    14    12     1    1
    15     1    11    1
    16     1    10    1
