@<TRIPOS>MOLECULE
LSDPWZHWYPCBBB-UHFFFAOYSA-N	6044831	-438.66843901267004
 6 5 0 0 0
SMALL
MULLIKEN NwChem

@<TRIPOS>ATOM
      1 C           0.3934   -1.0024   -0.4365 C.3     1  LIG1      -0.5800000000000001
      2 S          -0.2669    0.5971    0.1841 S.3     1  LIG1      -0.1700000000000017
      3 H           0.0299   -1.1077   -1.4617 H       1  LIG1       0.20999999999999996
      4 H           0.0231   -1.8439    0.1541 H       1  LIG1       0.19999999999999996
      5 H           1.4861   -1.0049   -0.4505 H       1  LIG1       0.19999999999999996
      6 H           0.2830    0.5319    1.4159 H       1  LIG1           0.14
@<TRIPOS>BOND
     1     3     1    1
     2     5     1    1
     3     1     4    1
     4     1     2    1
     5     2     6    1
