@<TRIPOS>MOLECULE
LSETUZAYSCHYKL-QGZVFWFLSA-K	11095280	-1762.9668706526493
 63 62 0 0 0
SMALL
MULLIKEN NwChem

@<TRIPOS>ATOM
      1 C           4.6506   -1.8725    0.2775 C.3     1  LIG1      -0.2599999999999998
      2 C           3.9953   -0.5559    0.7225 C.3     1  LIG1      -0.2599999999999998
      3 C           6.0781   -2.0861    0.8103 C.3     1  LIG1      -0.2599999999999998
      4 C           2.5217   -0.4027    0.3030 C.3     1  LIG1      -0.2599999999999998
      5 C           7.1471   -1.1317    0.2587 C.3     1  LIG1      -0.2599999999999998
      6 C           1.5658   -1.3934    0.9866 C.3     1  LIG1      -0.2599999999999998
      7 C           8.5461   -1.4229    0.8246 C.3     1  LIG1      -0.2599999999999998
      8 C           0.0727   -1.1281    0.7314 C.3     1  LIG1      -0.2599999999999998
      9 C           9.6693   -0.5081    0.3123 C.3     1  LIG1        -0.25
     10 C          -0.3523   -1.2473   -0.7409 C.3     1  LIG1      -0.2599999999999998
     11 C          10.0217   -0.6860   -1.1706 C.3     1  LIG1      -0.23000000000000043
     12 C          -1.8720   -1.3165   -0.9548 C.3     1  LIG1      -0.2599999999999998
     13 C          11.2392    0.1473   -1.5897 C.3     1  LIG1       -0.3700000000000001
     14 C          -2.6444   -0.0786   -0.4882 C.3     1  LIG1       -0.3700000000000001
     15 C          -6.3415    0.6527   -0.3616 C.3     1  LIG1       -0.08000000000000007
     16 C          -8.5220   -0.7148   -0.1879 C.3     1  LIG1       -0.03000000000000025
     17 C          -7.0364   -0.5495    0.2983 C.3     1  LIG1       0.08999999999999986
     18 C          12.6215   -0.3246   -0.9903 C.2     1  LIG1       0.5300000000000002
     19 C          -4.1123   -0.1157   -0.9363 C.2     1  LIG1       0.6399999999999997
     20 O          -6.9337   -0.4950    1.6961 O.3     1  LIG1      -0.7300000000000004
     21 O          12.6040   -1.3896   -0.3153 O.co2   1  LIG1      -0.6699999999999999
     22 O          13.5900    0.4215   -1.2748 O.co2   1  LIG1      -0.6899999999999995
     23 O          -4.4627   -0.6947   -1.9562 O.2     1  LIG1      -0.5600000000000005
     24 O         -10.7561    2.0377    1.2793 O.3     1  LIG1        -0.75
     25 O          -8.2303    1.7448    1.8663 O.3     1  LIG1      -0.8100000000000005
     26 O          -8.9202    2.1363   -0.5964 O.2     1  LIG1      -0.7899999999999991
     27 O          -4.8727    0.5699   -0.1072 O.3     1  LIG1      -0.4800000000000004
     28 O          -9.4886   -0.0916    0.5940 O.3     1  LIG1      -0.6400000000000006
     29 P          -9.3673    1.6572    0.7922 P.3     1  LIG1           1.0
     30 H           4.6589   -1.9159   -0.8224 H       1  LIG1          0.13
     31 H           4.0278   -2.7137    0.6100 H       1  LIG1          0.13
     32 H           4.5714    0.2877    0.3200 H       1  LIG1          0.13
     33 H           4.0645   -0.4764    1.8188 H       1  LIG1          0.13
     34 H           6.3880   -3.1174    0.5845 H       1  LIG1          0.13
     35 H           6.0612   -2.0126    1.9092 H       1  LIG1          0.13
     36 H           2.4430   -0.5043   -0.7883 H       1  LIG1          0.13
     37 H           2.1899    0.6195    0.5374 H       1  LIG1          0.13
     38 H           7.1645   -1.2072   -0.8373 H       1  LIG1          0.13
     39 H           6.8792   -0.0903    0.4885 H       1  LIG1          0.13
     40 H           1.7533   -1.3666    2.0710 H       1  LIG1          0.13
     41 H           1.8013   -2.4171    0.6623 H       1  LIG1          0.14
     42 H           8.4921   -1.3536    1.9230 H       1  LIG1          0.12
     43 H           8.8118   -2.4678    0.6017 H       1  LIG1          0.12
     44 H          -0.5158   -1.8428    1.3247 H       1  LIG1          0.13
     45 H          -0.1916   -0.1320    1.1120 H       1  LIG1          0.14
     46 H          10.5879   -0.7161    0.8707 H       1  LIG1          0.12
     47 H           9.3965    0.5432    0.5043 H       1  LIG1       0.10999999999999999
     48 H           0.1069   -2.1537   -1.1666 H       1  LIG1          0.13
     49 H           0.0578   -0.4019   -1.3127 H       1  LIG1          0.14
     50 H           9.1499   -0.4409   -1.7998 H       1  LIG1       0.10999999999999999
     51 H          10.2656   -1.7435   -1.3364 H       1  LIG1       0.10999999999999999
     52 H          -2.0930   -1.4674   -2.0173 H       1  LIG1          0.14
     53 H          -2.2705   -2.2002   -0.4359 H       1  LIG1          0.14
     54 H          11.0951    1.2050   -1.3206 H       1  LIG1          0.12
     55 H          11.3431    0.1364   -2.6855 H       1  LIG1          0.12
     56 H          -2.1909    0.8269   -0.9210 H       1  LIG1       0.18000000000000005
     57 H          -2.6122    0.0453    0.5985 H       1  LIG1       0.17000000000000004
     58 H          -6.6602    1.5811    0.1051 H       1  LIG1       0.18000000000000005
     59 H          -6.4910    0.6872   -1.4413 H       1  LIG1       0.15000000000000002
     60 H          -8.5784   -0.4037   -1.2489 H       1  LIG1       0.10999999999999999
     61 H          -8.7324   -1.8025   -0.1526 H       1  LIG1          0.12
     62 H          -6.4885   -1.4461   -0.0475 H       1  LIG1          0.13
     63 H          -7.4778    0.3560    1.9239 H       1  LIG1       0.42000000000000004
@<TRIPOS>BOND
     1    55    13    1
     2    52    12    1
     3    23    19    2
     4    50    11    1
     5    13    54    1
     6    13    11    1
     7    13    18    1
     8    59    15    1
     9    51    11    1
    10    49    10    1
    11    22    18   ar
    12    60    16    1
    13    11     9    1
    14    48    10    1
    15    18    21   ar
    16    12    10    1
    17    12    14    1
    18    12    53    1
    19    19    14    1
    20    19    27    1
    21    56    14    1
    22    38     5    1
    23    30     1    1
    24    36     4    1
    25    10     8    1
    26    26    29    2
    27    14    57    1
    28    15    27    1
    29    15    58    1
    30    15    17    1
    31    16    61    1
    32    16    17    1
    33    16    28    1
    34    62    17    1
    35     5    39    1
    36     5     3    1
    37     5     7    1
    38     1    31    1
    39     1     2    1
    40     1     3    1
    41    17    20    1
    42     4    37    1
    43     4     2    1
    44     4     6    1
    45     9    47    1
    46     9     7    1
    47     9    46    1
    48    32     2    1
    49    34     3    1
    50    28    29    1
    51    43     7    1
    52    41     6    1
    53     2    33    1
    54     8     6    1
    55     8    45    1
    56     8    44    1
    57    29    24    1
    58    29    25    1
    59     3    35    1
    60     7    42    1
    61     6    40    1
    62    20    63    1
