@<TRIPOS>MOLECULE
LSJLEXWXRKTZAJ-YUIIPXGZSA-K	11095279	-2577.0954057378763
 101 100 0 0 0
SMALL
MULLIKEN NwChem

@<TRIPOS>ATOM
      1 C          13.6815    1.6233    0.5893 C.3     1  LIG1      -0.5300000000000002
      2 C          14.9047   -0.3096    1.6651 C.3     1  LIG1      -0.5199999999999996
      3 C          10.7068   -0.4447    0.3641 C.3     1  LIG1      -0.5300000000000002
      4 C           7.4781    1.0523    1.6251 C.3     1  LIG1        -0.54
      5 C           4.6602   -1.2777    2.4763 C.3     1  LIG1        -0.54
      6 C           0.9259   -0.2670    2.6449 C.3     1  LIG1      -0.5499999999999998
      7 C          -2.8327   -2.9268    1.8651 C.3     1  LIG1        -0.54
      8 C          -7.7345   -1.8618   -1.7855 C.3     1  LIG1      -0.5899999999999999
      9 C          13.3146   -0.2023   -1.9229 C.3     1  LIG1      -0.2999999999999998
     10 C           9.6321    2.3644   -0.4873 C.3     1  LIG1      -0.3099999999999996
     11 C           6.7672   -1.5013   -0.0124 C.3     1  LIG1      -0.3099999999999996
     12 C           3.2722    1.4071    1.5947 C.3     1  LIG1      -0.3200000000000003
     13 C          -0.9253   -1.0132    0.3116 C.3     1  LIG1      -0.3099999999999996
     14 C          -5.5327   -2.7893    0.2878 C.3     1  LIG1      -0.3200000000000003
     15 C          14.0614   -0.5513   -0.6740 C.2     1  LIG1      -0.1900000000000004
     16 C          11.7795   -0.5769   -1.9471 C.3     1  LIG1      -0.33000000000000007
     17 C          10.4472    1.4258   -1.3268 C.2     1  LIG1      -0.17999999999999972
     18 C           8.0754    2.1596   -0.5846 C.3     1  LIG1      -0.33000000000000007
     19 C           7.2603   -0.1926   -0.5620 C.2     1  LIG1      -0.1900000000000004
     20 C           5.2073   -1.6317    0.0188 C.3     1  LIG1      -0.33000000000000007
     21 C           3.9358    0.3864    0.7127 C.2     1  LIG1      -0.16999999999999993
     22 C           1.7913    1.6764    1.2231 C.3     1  LIG1      -0.33999999999999986
     23 C           0.0673    0.1233    0.3166 C.2     1  LIG1      -0.20999999999999996
     24 C          -2.3049   -0.6229    0.9088 C.3     1  LIG1      -0.33000000000000007
     25 C          -4.4497   -1.7485    0.3222 C.2     1  LIG1      -0.1900000000000004
     26 C          -6.9345   -2.2136    0.6268 C.3     1  LIG1      -0.33000000000000007
     27 C          -7.8004    0.0024   -0.0856 C.2     1  LIG1      -0.23000000000000043
     28 C          -8.4112    1.0625   -0.9580 C.3     1  LIG1       -0.08000000000000007
     29 C          14.1987    0.2175    0.4436 C.2     1  LIG1      0.1900000000000004
     30 C          10.9345    0.2035   -0.9755 C.2     1  LIG1      0.1900000000000004
     31 C           7.5709    0.9305    0.1241 C.2     1  LIG1      0.20000000000000018
     32 C           4.5429   -0.7627    1.0611 C.2     1  LIG1      0.17999999999999972
     33 C           0.8777    0.4722    1.3275 C.2     1  LIG1      0.20000000000000018
     34 C          -3.2825   -1.7785    0.9863 C.2     1  LIG1      0.16999999999999993
     35 C          -7.4985   -1.2646   -0.4133 C.2     1  LIG1      0.1900000000000004
     36 O         -11.9352    0.8715   -4.5245 O.2     1  LIG1      -0.7899999999999991
     37 O          -9.9909   -0.3048   -3.3545 O.3     1  LIG1        -0.75
     38 O         -12.2698   -0.1250   -2.1849 O.3     1  LIG1      -0.8000000000000007
     39 O         -11.6664    2.9841   -0.2900 O.3     1  LIG1      -0.6999999999999993
     40 O          -9.4418    3.8173   -1.4150 O.2     1  LIG1      -0.7300000000000004
     41 O          -9.6170    1.4784   -0.3344 O.3     1  LIG1      -0.6099999999999994
     42 O         -10.7958    2.0174   -2.5745 O.3     1  LIG1      -0.6799999999999997
     43 P         -11.2898    0.5167   -3.1742 P.3     1  LIG1       0.8699999999999992
     44 P         -10.4497    2.7223   -1.1340 P.3     1  LIG1       1.0600000000000005
     45 H          13.0698    1.9465   -0.2564 H       1  LIG1       0.16000000000000003
     46 H          13.0494    1.7169    1.4888 H       1  LIG1       0.16000000000000003
     47 H          14.5047    2.3500    0.7254 H       1  LIG1       0.15000000000000002
     48 H          15.7517    0.3338    1.9637 H       1  LIG1       0.15000000000000002
     49 H          15.2955   -1.3232    1.5117 H       1  LIG1       0.16000000000000003
     50 H          14.2328   -0.3424    2.5414 H       1  LIG1       0.16000000000000003
     51 H           9.9141   -1.2100    0.2973 H       1  LIG1       0.16000000000000003
     52 H          11.6188   -0.9416    0.7176 H       1  LIG1       0.15000000000000002
     53 H          10.3807    0.2666    1.1303 H       1  LIG1       0.16000000000000003
     54 H           8.3441    1.5902    2.0362 H       1  LIG1       0.16000000000000003
     55 H           7.4224    0.0829    2.1281 H       1  LIG1       0.16000000000000003
     56 H           6.5812    1.6181    1.9187 H       1  LIG1       0.16000000000000003
     57 H           4.0989   -2.2162    2.5951 H       1  LIG1       0.16000000000000003
     58 H           4.2910   -0.5726    3.2252 H       1  LIG1       0.16000000000000003
     59 H           5.7043   -1.5079    2.7292 H       1  LIG1       0.17000000000000004
     60 H           0.8895    0.4400    3.4859 H       1  LIG1       0.16000000000000003
     61 H           0.0963   -0.9674    2.7662 H       1  LIG1       0.17000000000000004
     62 H           1.8623   -0.8309    2.7465 H       1  LIG1       0.17000000000000004
     63 H          -2.0498   -3.5323    1.3852 H       1  LIG1       0.17000000000000004
     64 H          -2.4006   -2.5479    2.8037 H       1  LIG1       0.16000000000000003
     65 H          -3.6518   -3.6022    2.1243 H       1  LIG1       0.16000000000000003
     66 H          -8.5293   -1.3384   -2.3392 H       1  LIG1       0.20999999999999996
     67 H          -6.8191   -1.8490   -2.4009 H       1  LIG1       0.15000000000000002
     68 H          -8.0269   -2.9204   -1.6914 H       1  LIG1          0.14
     69 H          13.7863   -0.7128   -2.7761 H       1  LIG1          0.14
     70 H          13.3700    0.8747   -2.1357 H       1  LIG1       0.15000000000000002
     71 H           9.8450    3.3972   -0.7986 H       1  LIG1          0.14
     72 H           9.9191    2.3069    0.5715 H       1  LIG1       0.15000000000000002
     73 H           7.1561   -1.6841    0.9975 H       1  LIG1       0.15000000000000002
     74 H           7.1549   -2.3192   -0.6357 H       1  LIG1          0.14
     75 H           3.8130    2.3634    1.5085 H       1  LIG1       0.15000000000000002
     76 H           3.3355    1.1224    2.6503 H       1  LIG1       0.15000000000000002
     77 H          -0.5202   -1.8680    0.8656 H       1  LIG1       0.15000000000000002
     78 H          -1.0817   -1.3637   -0.7164 H       1  LIG1          0.14
     79 H          -5.3041   -3.6254    0.9616 H       1  LIG1       0.15000000000000002
     80 H          -5.5787   -3.2165   -0.7253 H       1  LIG1       0.15000000000000002
     81 H          14.4734   -1.5621   -0.6396 H       1  LIG1          0.12
     82 H          11.4319   -0.4022   -2.9751 H       1  LIG1          0.14
     83 H          11.6874   -1.6568   -1.7635 H       1  LIG1          0.14
     84 H          10.6196    1.7555   -2.3541 H       1  LIG1          0.12
     85 H           7.8024    2.1302   -1.6469 H       1  LIG1          0.14
     86 H           7.5934    3.0528   -0.1569 H       1  LIG1          0.14
     87 H           7.3398   -0.1496   -1.6488 H       1  LIG1          0.12
     88 H           4.9567   -2.6872    0.2077 H       1  LIG1          0.14
     89 H           4.8219   -1.3884   -0.9788 H       1  LIG1          0.14
     90 H           3.9131    0.6329   -0.3501 H       1  LIG1          0.12
     91 H           1.4210    2.4690    1.8942 H       1  LIG1          0.14
     92 H           1.7453    2.0852    0.2055 H       1  LIG1          0.14
     93 H           0.0872    0.7392   -0.5836 H       1  LIG1          0.12
     94 H          -2.7318    0.1968    0.3194 H       1  LIG1          0.14
     95 H          -2.1258   -0.2194    1.9185 H       1  LIG1          0.14
     96 H          -4.6871   -0.8556   -0.2580 H       1  LIG1          0.12
     97 H          -6.8854   -1.7250    1.6093 H       1  LIG1          0.14
     98 H          -7.6151   -3.0752    0.7322 H       1  LIG1          0.14
     99 H          -7.6348    0.3191    0.9488 H       1  LIG1          0.12
    100 H          -8.6100    0.6936   -1.9695 H       1  LIG1       0.17000000000000004
    101 H          -7.7149    1.9179   -1.0343 H       1  LIG1       0.10999999999999999
@<TRIPOS>BOND
     1    36    43    2
     2    37    43    1
     3    43    42    1
     4    43    38    1
     5    82    16    1
     6    69     9    1
     7    42    44    1
     8    67     8    1
     9    84    17    1
    10    66     8    1
    11    70     9    1
    12   100    28    1
    13    16     9    1
    14    16    83    1
    15    16    30    1
    16     9    15    1
    17     8    68    1
    18     8    35    1
    19    87    19    1
    20    85    18    1
    21    40    44    2
    22    17    30    2
    23    17    10    1
    24    44    41    1
    25    44    39    1
    26   101    28    1
    27    89    20    1
    28    30     3    1
    29    28    41    1
    30    28    27    1
    31    71    10    1
    32    80    14    1
    33    78    13    1
    34    15    81    1
    35    15    29    2
    36    74    11    1
    37    18    10    1
    38    18    86    1
    39    18    31    1
    40    93    23    1
    41    19    11    1
    42    19    31    2
    43    10    72    1
    44    35    27    2
    45    35    26    1
    46    90    21    1
    47    96    25    1
    48    45     1    1
    49    27    99    1
    50    11    20    1
    51    11    73    1
    52    20    88    1
    53    20    32    1
    54    31     4    1
    55    92    22    1
    56    14    25    1
    57    14    26    1
    58    14    79    1
    59    51     3    1
    60    13    23    1
    61    13    77    1
    62    13    24    1
    63    23    33    2
    64    94    24    1
    65    25    34    2
    66     3    52    1
    67     3    53    1
    68    29     1    1
    69    29     2    1
    70     1    47    1
    71     1    46    1
    72    26    98    1
    73    26    97    1
    74    21    32    2
    75    21    12    1
    76    24    34    1
    77    24    95    1
    78    34     7    1
    79    32     5    1
    80    22    33    1
    81    22    12    1
    82    22    91    1
    83    33     6    1
    84    63     7    1
    85    75    12    1
    86    49     2    1
    87    12    76    1
    88     4    56    1
    89     4    54    1
    90     4    55    1
    91     2    48    1
    92     2    50    1
    93     7    65    1
    94     7    64    1
    95     5    57    1
    96     5    59    1
    97     5    58    1
    98     6    62    1
    99     6    61    1
   100     6    60    1
