@<TRIPOS>MOLECULE
LSNNMFCWUKXFEE-UHFFFAOYSA-L	6044834	-624.0511426380773
 4 3 0 0 0
SMALL
MULLIKEN NwChem

@<TRIPOS>ATOM
      1 O          -1.4523   -0.1400    0.2351 O.3     1  LIG1      -0.8499999999999996
      2 O           0.6158   -0.8384   -1.0495 O.3     1  LIG1      -0.8499999999999996
      3 O           0.6294    1.3020    0.3050 O.3     1  LIG1      -0.8499999999999996
      4 S           0.1155   -0.1805    0.2841 S.3     1  LIG1       0.5399999999999991
@<TRIPOS>BOND
     1     2     4    1
     2     1     4    1
     3     4     3    1
