@<TRIPOS>MOLECULE
LSNNMFCWUKXFEE-UHFFFAOYSA-M	6044835	-624.5494007773825
 5 4 0 0 0
SMALL
MULLIKEN NwChem

@<TRIPOS>ATOM
      1 O          -1.4224   -0.0774   -0.3293 O.3     1  LIG1      -0.6899999999999995
      2 O           0.3620   -0.3748    1.5357 O.3     1  LIG1      -0.7799999999999994
      3 O           1.0286    0.1771   -0.8305 O.3     1  LIG1      -0.7200000000000006
      4 S          -0.1199    0.5549    0.0812 S.3     1  LIG1       0.8000000000000007
      5 H           0.8410   -1.1117    1.1096 H       1  LIG1           0.39
@<TRIPOS>BOND
     1     3     4    1
     2     1     4    1
     3     4     2    1
     4     5     2    1
