@<TRIPOS>MOLECULE
LTFMZDNNPPEQNG-KVQBGUIXSA-L	11095278	-1530.1450181605987
 35 37 0 0 0
SMALL
MULLIKEN NwChem

@<TRIPOS>ATOM
      1 C          -0.1432    1.3208    0.4165 C.3     1  LIG1       -0.3099999999999996
      2 C           2.5578   -0.7275    1.5127 C.3     1  LIG1       -0.05999999999999961
      3 C          -2.1107   -1.2419    1.1051 C.ar    1  LIG1       0.17999999999999972
      4 C           1.3863    1.3680    0.5229 C.3     1  LIG1       0.11000000000000032
      5 C           1.7942   -0.1241    0.3301 C.3     1  LIG1       0.09999999999999964
      6 C          -0.4189    0.0021   -0.3234 C.3     1  LIG1       0.2699999999999996
      7 C          -3.8745   -1.0874   -0.1159 C.ar    1  LIG1       0.08000000000000007
      8 C          -2.8559   -0.4838   -0.8232 C.ar    1  LIG1       0.5999999999999996
      9 C          -5.2332   -1.1328   -0.7123 C.ar    1  LIG1       0.4800000000000004
     10 C          -4.3626    0.1119   -2.5853 C.ar    1  LIG1       0.5700000000000003
     11 N          -4.4434    0.7987   -3.6970 N.pl3   1  LIG1      -0.8099999999999996
     12 N          -3.3802   -1.5623    1.0944 N.ar    1  LIG1      -0.5899999999999999
     13 N          -3.0228    0.0498   -2.0660 N.ar    1  LIG1      -0.7400000000000002
     14 N          -5.3722   -0.5137   -1.9330 N.ar    1  LIG1      -0.6699999999999999
     15 N          -1.7117   -0.5883   -0.0642 N.ar    1  LIG1      -0.5099999999999998
     16 O           1.9203    2.1933   -0.4913 O.3     1  LIG1      -0.7200000000000006
     17 O          -6.1798   -1.6913   -0.1315 O.2     1  LIG1      -0.6699999999999999
     18 O           5.4498   -0.9931    0.4845 O.3     1  LIG1      -0.6999999999999993
     19 O           5.9320    1.0511    1.9869 O.3     1  LIG1      -0.6999999999999993
     20 O           4.5074    1.4101   -0.1046 O.2     1  LIG1      -0.6999999999999993
     21 O           3.6235    0.1049    1.9492 O.3     1  LIG1      -0.5800000000000001
     22 O           0.5849   -0.8863    0.1480 O.3     1  LIG1      -0.5500000000000007
     23 P           4.9033    0.3461    0.8904 P.3     1  LIG1       1.0700000000000003
     24 H          -0.5394    2.1958   -0.1052 H       1  LIG1       0.17000000000000004
     25 H          -0.6085    1.2547    1.4059 H       1  LIG1       0.17000000000000004
     26 H           1.8613   -0.8215    2.3560 H       1  LIG1       0.16000000000000003
     27 H           2.9268   -1.7280    1.2504 H       1  LIG1       0.16000000000000003
     28 H          -1.3856   -1.4700    1.8731 H       1  LIG1       0.18999999999999995
     29 H           1.7076    1.7129    1.5163 H       1  LIG1          0.14
     30 H           2.3977   -0.1850   -0.5835 H       1  LIG1       0.15000000000000002
     31 H          -0.3279    0.1421   -1.4123 H       1  LIG1       0.18000000000000005
     32 H          -5.4305    0.7642   -3.9650 H       1  LIG1          0.27
     33 H          -2.3629    0.6887   -2.4860 H       1  LIG1          0.37
     34 H           2.9012    2.0471   -0.4403 H       1  LIG1       0.43999999999999995
     35 H           6.3857    0.3087    2.4153 H       1  LIG1       0.44999999999999996
@<TRIPOS>BOND
     1    32    11    1
     2    11    10    1
     3    10    13   ar
     4    10    14   ar
     5    33    13    1
     6    13     8   ar
     7    14     9   ar
     8    31     6    1
     9     8     7   ar
    10     8    15   ar
    11     9    17    2
    12     9     7   ar
    13    30     5    1
    14    16    34    1
    15    16     4    1
    16     6    15    1
    17     6    22    1
    18     6     1    1
    19     7    12   ar
    20    24     1    1
    21    20    23    2
    22    15     3   ar
    23    22     5    1
    24     5     4    1
    25     5     2    1
    26     1     4    1
    27     1    25    1
    28    18    23    1
    29     4    29    1
    30    23    21    1
    31    23    19    1
    32    12     3   ar
    33     3    28    1
    34    27     2    1
    35     2    21    1
    36     2    26    1
    37    19    35    1
