@<TRIPOS>MOLECULE
LTQYPAVLAYVKTK-YFKPBYRVSA-N	6119243	-712.5190064803468
 17 18 0 0 0
SMALL
MULLIKEN NwChem

@<TRIPOS>ATOM
      1 C           0.9325    0.4673    0.1490 C.3     1  LIG1       0.6200000000000001
      2 C          -0.9035   -1.1622   -0.1744 C.2     1  LIG1       0.6200000000000001
      3 C           1.3525   -1.9013    0.0164 C.2     1  LIG1       0.7300000000000004
      4 C          -0.1260    2.2237   -0.4036 C.3     1  LIG1       0.8300000000000001
      5 C          -0.6043    0.2062    0.4815 C.3     1  LIG1       0.29000000000000004
      6 N           1.7255   -0.5338    0.3108 N.am    1  LIG1      -0.4400000000000004
      7 N           1.1127    1.7102   -0.2839 N.3     1  LIG1      -0.5099999999999998
      8 N          -0.0312   -2.0914   -0.2297 N.am    1  LIG1      -0.4800000000000004
      9 N          -1.1513    1.3934   -0.1132 N.3     1  LIG1      -0.5599999999999996
     10 O          -2.1627   -1.2872   -0.5355 O.2     1  LIG1      -0.5299999999999994
     11 O           2.1624   -2.7738   -0.0230 O.2     1  LIG1      -0.4299999999999997
     12 O          -0.3781    3.4274   -0.8108 O.3     1  LIG1      -0.5399999999999991
     13 O          -0.9370    0.2052    1.8184 O.3     1  LIG1      -0.5399999999999991
     14 H          -2.0950    1.7146    0.0817 H       1  LIG1       0.43999999999999995
     15 H          -2.3300   -2.1854   -0.8922 H       1  LIG1           0.5
     16 H           0.4539    3.9096   -0.9977 H       1  LIG1          0.51
     17 H          -0.6796   -0.6260    2.2601 H       1  LIG1           0.49
@<TRIPOS>BOND
     1    16    12    1
     2    15    10    1
     3    12     4    1
     4    10     2    1
     5     4     7    1
     6     4     9    1
     7     7     1    1
     8     8     2    2
     9     8     3    1
    10     2     5    1
    11     9    14    1
    12     9     5    1
    13    11     3    2
    14     3     6   am
    15     1     6    1
    16     1     5    1
    17     5    13    1
    18    13    17    1
