@<TRIPOS>MOLECULE
LTYOQGRJFJAKNA-DVVLENMVSA-I	11095276	-4169.545351793823
 87 89 0 0 0
SMALL
MULLIKEN NwChem

@<TRIPOS>ATOM
      1 C           3.2998    0.0461    1.3140 C.3     1  LIG1      -0.4800000000000004
      2 C           1.7599   -1.7758    0.5045 C.3     1  LIG1      -0.4500000000000002
      3 C           7.7474   -0.1578   -0.3326 C.3     1  LIG1       -0.3700000000000001
      4 C           6.2674    0.0007   -0.7347 C.3     1  LIG1       -0.16000000000000014
      5 C          10.4717   -0.1091    0.4058 C.3     1  LIG1       -0.11000000000000032
      6 C          11.8912    0.0922    0.9783 C.3     1  LIG1       -0.41999999999999993
      7 C          14.9786   -0.2453    1.6360 C.3     1  LIG1       -0.4299999999999997
      8 C          -4.8922   -0.9227   -1.4492 C.3     1  LIG1       -0.1200000000000001
      9 C           1.2664    0.6484    0.0802 C.3     1  LIG1       -0.05999999999999961
     10 C         -10.1398   -0.5554    4.4412 C.ar    1  LIG1       0.15000000000000036
     11 C          -7.3355    1.2425    1.6476 C.ar    1  LIG1       0.20999999999999996
     12 C          -6.3012   -1.2788   -1.0237 C.3     1  LIG1       0.15000000000000036
     13 C           8.5641    1.1705   -0.2499 C.2     1  LIG1       0.4800000000000004
     14 C          16.4807   -0.2647    2.1445 C.2     1  LIG1       0.5099999999999998
     15 C          14.7617    0.4270    0.2905 C.2     1  LIG1       0.29000000000000004
     16 C          -8.5990    1.3151    3.3501 C.ar    1  LIG1       0.20000000000000018
     17 C          -8.5934   -0.9818   -0.5436 C.3     1  LIG1       0.1200000000000001
     18 C          -7.4562   -0.3874   -1.4700 C.3     1  LIG1       0.13999999999999968
     19 C           3.2080   -0.4428   -1.1692 C.3     1  LIG1       0.05999999999999961
     20 C          -9.3958    1.6180    4.4615 C.ar    1  LIG1       0.4400000000000004
     21 C          -8.6842   -0.0011    2.8609 C.ar    1  LIG1       0.5300000000000002
     22 C           4.3620   -1.5338   -1.1119 C.2     1  LIG1       0.4500000000000002
     23 C          -7.7773   -1.1453    0.7987 C.3     1  LIG1          0.25
     24 C           2.3756   -0.4091    0.1651 C.3     1  LIG1       0.04999999999999982
     25 N          -9.3772    2.8790    5.0349 N.pl3   1  LIG1      -0.7800000000000002
     26 N           9.8552    1.1470    0.1074 N.am    1  LIG1      -0.6200000000000001
     27 N           5.6365   -1.3035   -0.8722 N.am    1  LIG1      -0.6200000000000001
     28 N         -10.1803    0.6719    5.0047 N.ar    1  LIG1      -0.5499999999999998
     29 N          -9.4396   -0.9792    3.3913 N.ar    1  LIG1        -0.54
     30 N          -7.7477    2.0795    2.5821 N.ar    1  LIG1      -0.5800000000000001
     31 N          -7.8575   -0.0334    1.7623 N.ar    1  LIG1      -0.5099999999999998
     32 O           7.9464    2.2334   -0.5288 O.2     1  LIG1      -0.7100000000000009
     33 O          17.0708   -1.3693    2.0355 O.co2   1  LIG1      -0.6600000000000001
     34 O          16.8864    0.8189    2.6310 O.co2   1  LIG1      -0.6699999999999999
     35 O          15.6552    0.7354   -0.4773 O.2     1  LIG1      -0.4900000000000002
     36 O          -9.0157   -2.1945   -0.9405 O.3     1  LIG1      -0.7899999999999991
     37 O           3.5828    0.9015   -1.5233 O.3     1  LIG1      -0.6999999999999993
     38 O           3.8690   -2.6940   -1.2818 O.2     1  LIG1      -0.7100000000000009
     39 O          -8.7979   -0.0074   -5.0669 O.2     1  LIG1      -0.6999999999999993
     40 O          -9.9222   -1.4966   -3.3048 O.3     1  LIG1      -0.7799999999999994
     41 O          -9.6446    1.0450   -2.8004 O.3     1  LIG1      -0.7400000000000002
     42 O          -3.9577   -0.9890    1.2887 O.3     1  LIG1      -0.6899999999999995
     43 O          -4.0835    1.6489    1.2888 O.2     1  LIG1      -0.5800000000000001
     44 O          -1.8182    0.5034   -2.2352 O.3     1  LIG1      -0.6699999999999999
     45 O          -1.1344    2.4837   -0.6282 O.2     1  LIG1      -0.5999999999999996
     46 O          -4.4030    0.3349   -0.8899 O.3     1  LIG1      -0.5899999999999999
     47 O           0.1748    0.2046   -0.8183 O.3     1  LIG1      -0.5199999999999996
     48 O          -6.4029   -1.3219    0.4305 O.3     1  LIG1      -0.5899999999999999
     49 O          -7.5997   -0.5448   -2.8546 O.3     1  LIG1      -0.6500000000000004
     50 O          -2.1067    0.2290    0.2726 O.3     1  LIG1      -0.6099999999999994
     51 P          -9.0962   -0.1181   -3.5962 P.3     1  LIG1       1.0500000000000007
     52 P          -3.6911    0.4159    0.5768 P.3     1  LIG1       1.2400000000000002
     53 P          -1.1742    1.0232   -0.8502 P.3     1  LIG1       1.2100000000000009
     54 S          13.0623    0.8063   -0.2766 S.3     1  LIG1      0.019999999999999574
     55 H           4.1678   -0.6194    1.3581 H       1  LIG1       0.15000000000000002
     56 H           2.7794    0.0252    2.2826 H       1  LIG1       0.15000000000000002
     57 H           3.6711    1.0625    1.1421 H       1  LIG1       0.16000000000000003
     58 H           1.1683   -1.7048    1.4313 H       1  LIG1          0.13
     59 H           1.0992   -2.1128   -0.2988 H       1  LIG1          0.14
     60 H           2.5473   -2.5234    0.6076 H       1  LIG1       0.16000000000000003
     61 H           8.2209   -0.8497   -1.0474 H       1  LIG1          0.13
     62 H           7.7860   -0.6926    0.6306 H       1  LIG1          0.12
     63 H           5.8189    0.6667    0.0326 H       1  LIG1       0.10999999999999999
     64 H           6.2703    0.5908   -1.6713 H       1  LIG1       0.10999999999999999
     65 H          10.5645   -0.8118   -0.4552 H       1  LIG1       0.10999999999999999
     66 H           9.9553   -0.7148    1.1923 H       1  LIG1       0.10999999999999999
     67 H          11.8386    0.7829    1.8264 H       1  LIG1       0.18000000000000005
     68 H          12.3106   -0.8630    1.3146 H       1  LIG1       0.18999999999999995
     69 H          14.6062   -1.2756    1.5446 H       1  LIG1       0.18000000000000005
     70 H          14.3468    0.2626    2.3757 H       1  LIG1       0.18000000000000005
     71 H          -4.1772   -1.7152   -1.2053 H       1  LIG1       0.20999999999999996
     72 H          -4.9246   -0.7778   -2.5318 H       1  LIG1       0.19999999999999996
     73 H           1.6589    1.5852   -0.3167 H       1  LIG1       0.18999999999999995
     74 H           0.8228    0.8125    1.0696 H       1  LIG1       0.18999999999999995
     75 H         -10.7797   -1.2999    4.9156 H       1  LIG1       0.16000000000000003
     76 H          -6.6214    1.4863    0.8750 H       1  LIG1       0.21999999999999997
     77 H          -6.5343   -2.2753   -1.4210 H       1  LIG1       0.17000000000000004
     78 H          -9.3750   -0.2049   -0.3920 H       1  LIG1       0.07999999999999996
     79 H          -7.2584    0.6659   -1.2086 H       1  LIG1          0.13
     80 H           2.5314   -0.7803   -1.9619 H       1  LIG1          0.12
     81 H          -8.1493   -2.0281    1.3203 H       1  LIG1       0.17000000000000004
     82 H          -9.0282    3.5973    4.4108 H       1  LIG1          0.37
     83 H         -10.2349    3.1176    5.5164 H       1  LIG1          0.36
     84 H          -9.6383   -1.8478   -2.3857 H       1  LIG1       0.42000000000000004
     85 H           4.4944    1.0290   -1.2239 H       1  LIG1       0.43000000000000005
     86 H          -4.9304   -1.2043    1.2147 H       1  LIG1          0.49
     87 H          -2.7825    0.6612   -2.2070 H       1  LIG1           0.49
@<TRIPOS>BOND
     1    39    51    2
     2    51    40    1
     3    51    49    1
     4    51    41    1
     5    40    84    1
     6    49    18    1
     7    72     8    1
     8    44    87    1
     9    44    53    1
    10    80    19    1
    11    64     4    1
    12    37    85    1
    13    37    19    1
    14    18    79    1
    15    18    12    1
    16    18    17    1
    17     8    71    1
    18     8    12    1
    19     8    46    1
    20    77    12    1
    21    38    22    2
    22    19    22    1
    23    19    24    1
    24    22    27   am
    25    61     3    1
    26    12    48    1
    27    36    17    1
    28    46    52    1
    29    27     4    1
    30    53    47    1
    31    53    45    2
    32    53    50    1
    33    47     9    1
    34     4     3    1
    35     4    63    1
    36    17    78    1
    37    17    23    1
    38    32    13    2
    39    35    15    2
    40    65     5    1
    41     3    13    1
    42     3    62    1
    43    73     9    1
    44    59     2    1
    45    54    15    1
    46    54     6    1
    47    13    26   am
    48     9    24    1
    49     9    74    1
    50    26     5    1
    51    24     2    1
    52    24     1    1
    53    50    52    1
    54    15     7    1
    55     5     6    1
    56     5    66    1
    57    48    23    1
    58     2    60    1
    59     2    58    1
    60    52    42    1
    61    52    43    2
    62    23    81    1
    63    23    31    1
    64    76    11    1
    65     6    68    1
    66     6    67    1
    67    57     1    1
    68    86    42    1
    69     1    55    1
    70     1    56    1
    71    69     7    1
    72     7    14    1
    73     7    70    1
    74    11    31   ar
    75    11    30   ar
    76    31    21   ar
    77    33    14   ar
    78    14    34   ar
    79    30    16   ar
    80    21    16   ar
    81    21    29   ar
    82    16    20   ar
    83    29    10   ar
    84    82    25    1
    85    10    75    1
    86    10    28   ar
    87    20    28   ar
    88    20    25    1
    89    25    83    1
