@<TRIPOS>MOLECULE
LUQFMENCTWEBSQ-TXICZTDVSA-L	11095275	-1163.3293028615165
 22 22 0 0 0
SMALL
MULLIKEN NwChem

@<TRIPOS>ATOM
      1 C          -3.4888    0.4340   -0.5669 C.3     1  LIG1       0.009999999999999787
      2 C          -2.0705    0.1050   -0.1808 C.3     1  LIG1       0.11000000000000032
      3 C          -1.7248    0.6158    1.2323 C.3     1  LIG1       0.05999999999999961
      4 C          -0.1845    1.0494    1.0911 C.3     1  LIG1       0.16000000000000014
      5 C           0.1244    0.7066   -0.4125 C.3     1  LIG1       0.2999999999999998
      6 F          -3.8796   -0.1269   -1.7973 F       1  LIG1      -0.34999999999999964
      7 O          -1.8043   -0.3415    2.2478 O.3     1  LIG1      -0.7300000000000004
      8 O           0.5285    0.4205    2.0594 O.3     1  LIG1      -0.7699999999999996
      9 O           2.9524    0.4961   -1.1328 O.3     1  LIG1      -0.7200000000000006
     10 O           2.5771   -0.9085    1.0292 O.3     1  LIG1      -0.7699999999999996
     11 O           2.6085   -2.1104   -1.2471 O.2     1  LIG1      -0.6999999999999993
     12 O          -1.1656    0.7702   -1.0584 O.3     1  LIG1      -0.5500000000000007
     13 O           0.6512   -0.5728   -0.5874 O.3     1  LIG1      -0.6199999999999992
     14 P           2.3507   -0.7817   -0.5867 P.3     1  LIG1       1.0099999999999998
     15 H          -3.6053    1.5242   -0.6485 H       1  LIG1       0.15000000000000002
     16 H          -4.1738    0.0517    0.2032 H       1  LIG1       0.16000000000000003
     17 H          -1.9150   -0.9828   -0.2054 H       1  LIG1          0.13
     18 H          -2.3581    1.4955    1.4713 H       1  LIG1       0.10999999999999999
     19 H          -0.1472    2.1663    1.1581 H       1  LIG1       0.06999999999999995
     20 H           0.7567    1.4506   -0.9080 H       1  LIG1          0.13
     21 H          -0.7926   -0.3484    2.4758 H       1  LIG1          0.39
     22 H           1.8181   -0.4062    1.4775 H       1  LIG1       0.43000000000000005
@<TRIPOS>BOND
     1     6     1    1
     2    11    14    2
     3     9    14    1
     4    12     5    1
     5    12     2    1
     6    20     5    1
     7    15     1    1
     8    13    14    1
     9    13     5    1
    10    14    10    1
    11     1     2    1
    12     1    16    1
    13     5     4    1
    14    17     2    1
    15     2     3    1
    16    10    22    1
    17     4    19    1
    18     4     3    1
    19     4     8    1
    20     3    18    1
    21     3     7    1
    22     7    21    1
