@<TRIPOS>MOLECULE
LVHBHZANLOWSRM-UHFFFAOYSA-L	6044842	-494.04984633576953
 13 12 0 0 0
SMALL
MULLIKEN NwChem

@<TRIPOS>ATOM
      1 C           1.1306   -1.3693    0.2749 C.2     1  LIG1      -0.4299999999999997
      2 C          -0.9012    0.0028   -0.3006 C.3     1  LIG1       -0.3899999999999997
      3 C           0.5838   -0.3253   -0.3628 C.2     1  LIG1       0.11000000000000032
      4 C          -1.8021   -0.7116    0.7709 C.2     1  LIG1           0.5
      5 C           1.4854    0.5942   -1.2517 C.2     1  LIG1       0.45999999999999996
      6 O          -2.4104    0.0496    1.5753 O.co2   1  LIG1      -0.6899999999999995
      7 O          -1.8721   -1.9742    0.7085 O.co2   1  LIG1      -0.6799999999999997
      8 O           2.7309    0.3746   -1.2270 O.co2   1  LIG1      -0.6899999999999995
      9 O           0.8773    1.4702   -1.9302 O.co2   1  LIG1      -0.6799999999999997
     10 H           0.5167   -2.0561    0.8524 H       1  LIG1          0.13
     11 H           2.2032   -1.5342    0.1845 H       1  LIG1          0.12
     12 H          -1.0023    1.0886   -0.1910 H       1  LIG1       0.10999999999999999
     13 H          -1.3206   -0.2205   -1.2971 H       1  LIG1           0.13
@<TRIPOS>BOND
     1     9     5   ar
     2    13     2    1
     3     5     8   ar
     4     5     3    1
     5     3     2    1
     6     3     1    2
     7     2    12    1
     8     2     4    1
     9    11     1    1
    10     1    10    1
    11     7     4   ar
    12     4     6   ar
