@<TRIPOS>MOLECULE
LWSYATLSXCUNTB-FPLPWBNLSA-L	11095273	-1691.501169283121
 68 67 0 0 0
SMALL
MULLIKEN NwChem

@<TRIPOS>ATOM
      1 C          10.4557   -1.5353   -0.0594 C.3     1  LIG1      -0.45999999999999996
      2 C          10.4918   -0.7778   -1.3940 C.3     1  LIG1        -0.25
      3 C          10.0431    0.6979   -1.3226 C.3     1  LIG1      -0.2599999999999998
      4 C           8.5351    0.9491   -1.5138 C.3     1  LIG1      -0.2599999999999998
      5 C           7.5820    0.3226   -0.4832 C.3     1  LIG1      -0.2699999999999996
      6 C           7.7915    0.8190    0.9632 C.3     1  LIG1      -0.3099999999999996
      7 C           6.8189    0.2059    1.9333 C.2     1  LIG1      -0.1299999999999999
      8 C           5.7484    0.7997    2.5089 C.2     1  LIG1      -0.1200000000000001
      9 C           5.2721    2.2155    2.3316 C.3     1  LIG1      -0.3099999999999996
     10 C           3.9041    2.3152    1.6172 C.3     1  LIG1      -0.2599999999999998
     11 C           3.9431    1.8238    0.1658 C.3     1  LIG1      -0.2599999999999998
     12 C           2.6409    2.0072   -0.6330 C.3     1  LIG1      -0.2699999999999996
     13 C           1.4097    1.2630   -0.0683 C.3     1  LIG1      -0.2599999999999998
     14 C           0.5316    2.1186    0.8583 C.3     1  LIG1      -0.2699999999999996
     15 C          -0.6156    1.3708    1.5594 C.3     1  LIG1      -0.2699999999999996
     16 C          -1.6746    0.7454    0.6268 C.3     1  LIG1      -0.28000000000000025
     17 C          -1.3968   -0.7130    0.2181 C.3     1  LIG1       -0.34999999999999964
     18 C          -4.8762   -1.4620   -0.9889 C.3     1  LIG1       -0.09999999999999964
     19 C          -6.9820   -0.3851   -1.8333 C.3     1  LIG1           0.0
     20 C          -5.7222   -0.2010   -0.9676 C.3     1  LIG1       0.08000000000000007
     21 C          -2.4519   -1.2472   -0.7515 C.2     1  LIG1       0.6100000000000003
     22 O          -4.9801    0.9378   -1.4751 O.3     1  LIG1      -0.6999999999999993
     23 O          -2.1722   -1.6723   -1.8601 O.2     1  LIG1      -0.5500000000000007
     24 O          -7.0458   -2.7474    0.6115 O.3     1  LIG1      -0.7899999999999991
     25 O          -8.4670   -0.5834    0.5632 O.3     1  LIG1      -0.8000000000000007
     26 O          -9.4620   -2.8244   -0.3463 O.2     1  LIG1      -0.7599999999999998
     27 O          -3.6542   -1.1624   -0.2018 O.3     1  LIG1      -0.47000000000000064
     28 O          -7.5949   -1.6201   -1.6586 O.3     1  LIG1      -0.6600000000000001
     29 P          -8.2308   -1.9854   -0.0213 P.3     1  LIG1       0.9499999999999993
     30 H          10.8369   -2.5572   -0.1773 H       1  LIG1          0.14
     31 H          11.0799   -1.0309    0.6892 H       1  LIG1          0.14
     32 H           9.4447   -1.6039    0.3511 H       1  LIG1       0.16000000000000003
     33 H           9.8765   -1.3072   -2.1358 H       1  LIG1          0.13
     34 H          11.5214   -0.8156   -1.7766 H       1  LIG1          0.13
     35 H          10.5670    1.2601   -2.1086 H       1  LIG1          0.13
     36 H          10.3806    1.1335   -0.3718 H       1  LIG1          0.14
     37 H           8.3683    2.0366   -1.5223 H       1  LIG1          0.13
     38 H           8.2526    0.5922   -2.5152 H       1  LIG1          0.13
     39 H           6.5502    0.5533   -0.7754 H       1  LIG1          0.14
     40 H           7.6593   -0.7725   -0.5115 H       1  LIG1          0.14
     41 H           8.8207    0.5856    1.2767 H       1  LIG1       0.15000000000000002
     42 H           7.7153    1.9141    0.9676 H       1  LIG1          0.14
     43 H           6.9931   -0.8493    2.1516 H       1  LIG1          0.13
     44 H           5.1211    0.1894    3.1611 H       1  LIG1          0.13
     45 H           5.1759    2.6981    3.3183 H       1  LIG1          0.14
     46 H           6.0058    2.8099    1.7717 H       1  LIG1       0.15000000000000002
     47 H           3.1651    1.7345    2.1846 H       1  LIG1          0.14
     48 H           3.5618    3.3609    1.6420 H       1  LIG1          0.13
     49 H           4.2207    0.7613    0.1638 H       1  LIG1          0.14
     50 H           4.7566    2.3494   -0.3591 H       1  LIG1          0.13
     51 H           2.8318    1.6637   -1.6587 H       1  LIG1          0.13
     52 H           2.4101    3.0804   -0.7142 H       1  LIG1          0.13
     53 H           0.7910    0.9077   -0.8996 H       1  LIG1          0.14
     54 H           1.7410    0.3602    0.4660 H       1  LIG1          0.13
     55 H           1.1594    2.5942    1.6233 H       1  LIG1          0.14
     56 H           0.1062    2.9425    0.2652 H       1  LIG1          0.13
     57 H          -1.1118    2.0855    2.2304 H       1  LIG1          0.14
     58 H          -0.1955    0.5894    2.2108 H       1  LIG1          0.14
     59 H          -2.6531    0.7596    1.1174 H       1  LIG1       0.16000000000000003
     60 H          -1.7751    1.3640   -0.2777 H       1  LIG1       0.15000000000000002
     61 H          -0.4231   -0.8262   -0.2644 H       1  LIG1       0.17000000000000004
     62 H          -1.4023   -1.3379    1.1212 H       1  LIG1       0.18000000000000005
     63 H          -4.5651   -1.7392   -1.9977 H       1  LIG1       0.16000000000000003
     64 H          -5.4282   -2.2543   -0.4609 H       1  LIG1       0.19999999999999996
     65 H          -7.6523    0.4609   -1.6054 H       1  LIG1       0.10999999999999999
     66 H          -6.6579   -0.2915   -2.8896 H       1  LIG1       0.10999999999999999
     67 H          -6.0539   -0.0175    0.0612 H       1  LIG1          0.14
     68 H          -4.2814    1.0887   -0.8204 H       1  LIG1       0.43000000000000005
@<TRIPOS>BOND
     1    66    19    1
     2    38     4    1
     3    33     2    1
     4    35     3    1
     5    63    18    1
     6    23    21    2
     7    19    28    1
     8    19    65    1
     9    19    20    1
    10    34     2    1
    11    51    12    1
    12    28    29    1
    13    37     4    1
    14     4     3    1
    15     4     5    1
    16    22    20    1
    17    22    68    1
    18     2     3    1
    19     2     1    1
    20     3    36    1
    21    18    20    1
    22    18    64    1
    23    18    27    1
    24    20    67    1
    25    53    13    1
    26    39     5    1
    27    21    27    1
    28    21    17    1
    29    52    12    1
    30    12    13    1
    31    12    11    1
    32    40     5    1
    33     5     6    1
    34    50    11    1
    35    26    29    2
    36    60    16    1
    37    61    17    1
    38    30     1    1
    39    13    54    1
    40    13    14    1
    41     1    32    1
    42     1    31    1
    43    29    25    1
    44    29    24    1
    45    49    11    1
    46    11    10    1
    47    17    16    1
    48    17    62    1
    49    56    14    1
    50    16    59    1
    51    16    15    1
    52    14    15    1
    53    14    55    1
    54     6    42    1
    55     6    41    1
    56     6     7    1
    57    15    58    1
    58    15    57    1
    59    10    48    1
    60    10    47    1
    61    10     9    1
    62    46     9    1
    63     7    43    1
    64     7     8    2
    65     9     8    1
    66     9    45    1
    67     8    44    1
