@<TRIPOS>MOLECULE
LXJXRIRHZLFYRP-VKHMYHEASA-L	6044845	-910.3014112948435
 15 14 0 0 0
SMALL
MULLIKEN NwChem

@<TRIPOS>ATOM
      1 C           1.3489   -1.4567   -0.0212 C.2     1  LIG1       0.29000000000000004
      2 C          -0.6587   -0.6959    1.4207 C.3     1  LIG1       -0.019999999999999574
      3 C          -0.1309   -1.6910    0.3449 C.3     1  LIG1       0.040000000000000036
      4 O           2.2632   -1.8831    0.6859 O.2     1  LIG1      -0.5399999999999991
      5 O          -0.9520   -1.7618   -0.7979 O.3     1  LIG1      -0.7300000000000004
      6 O           1.2606    0.8688    0.1776 O.3     1  LIG1      -0.7599999999999998
      7 O          -0.6363    0.7143   -1.5743 O.2     1  LIG1      -0.7899999999999991
      8 O          -0.4802    2.8156   -0.0329 O.3     1  LIG1      -0.7300000000000004
      9 O          -1.1581    0.5128    0.9284 O.3     1  LIG1      -0.6400000000000006
     10 P          -0.1540    1.3480   -0.2375 P.3     1  LIG1           1.0
     11 H           1.5037   -1.1444   -1.0689 H       1  LIG1       0.09999999999999998
     12 H          -1.4955   -1.1959    1.9482 H       1  LIG1          0.12
     13 H           0.1614   -0.5538    2.1503 H       1  LIG1       0.10999999999999999
     14 H          -0.1285   -2.6899    0.8229 H       1  LIG1          0.14
     15 H          -0.9239   -0.8087   -1.1845 H       1  LIG1       0.43000000000000005
@<TRIPOS>BOND
     1     7    10    2
     2    15     5    1
     3    11     1    1
     4     5     3    1
     5    10     8    1
     6    10     6    1
     7    10     9    1
     8     1     3    1
     9     1     4    2
    10     3    14    1
    11     3     2    1
    12     9     2    1
    13     2    12    1
    14     2    13    1
