@<TRIPOS>MOLECULE
LXNHXLLTXMVWPM-UHFFFAOYSA-N	6044846	-591.7427648153345
 23 23 0 0 0
SMALL
MULLIKEN NwChem

@<TRIPOS>ATOM
      1 C           1.3602   -1.9069   -2.4726 C.3     1  LIG1      -0.5199999999999996
      2 C           1.0331    1.4367   -0.9831 C.ar    1  LIG1       -0.04999999999999982
      3 C          -0.0018    2.4389    1.0815 C.3     1  LIG1       -0.13999999999999968
      4 C          -0.7762   -0.3929    1.8381 C.3     1  LIG1       -0.13999999999999968
      5 C           0.9927   -0.7956   -1.5279 C.ar    1  LIG1       0.2699999999999996
      6 C           0.3325    1.2503    0.2078 C.ar    1  LIG1       0.07000000000000028
      7 C          -0.0643   -0.0596    0.5418 C.ar    1  LIG1       0.08000000000000007
      8 C           0.2686   -1.0891   -0.3497 C.ar    1  LIG1          0.25
      9 N           1.3638    0.4504   -1.8280 N.ar    1  LIG1      -0.5199999999999996
     10 O          -1.4125    2.6393    1.2310 O.3     1  LIG1      -0.6500000000000004
     11 O          -1.8029   -1.3954    1.6633 O.3     1  LIG1      -0.6500000000000004
     12 O          -0.0639   -2.3900   -0.1334 O.3     1  LIG1      -0.6899999999999995
     13 H           1.8871   -1.4940   -3.3353 H       1  LIG1       0.16000000000000003
     14 H           0.4662   -2.4449   -2.8100 H       1  LIG1       0.17000000000000004
     15 H           1.9988   -2.6483   -1.9772 H       1  LIG1       0.17000000000000004
     16 H           1.3498    2.4381   -1.2737 H       1  LIG1       0.15000000000000002
     17 H           0.3732    2.3052    2.1017 H       1  LIG1       0.18000000000000005
     18 H           0.4838    3.3394    0.6767 H       1  LIG1       0.16000000000000003
     19 H          -0.0754   -0.8461    2.5485 H       1  LIG1       0.18999999999999995
     20 H          -1.2058    0.5013    2.2946 H       1  LIG1       0.18999999999999995
     21 H          -1.7803    2.7248    0.3370 H       1  LIG1       0.42000000000000004
     22 H          -2.5000   -1.0000    1.1143 H       1  LIG1       0.43999999999999995
     23 H          -0.7464   -2.4061    0.5734 H       1  LIG1       0.44999999999999996
@<TRIPOS>BOND
     1    13     1    1
     2    14     1    1
     3     1    15    1
     4     1     5    1
     5     9     5   ar
     6     9     2   ar
     7     5     8   ar
     8    16     2    1
     9     2     6   ar
    10     8    12    1
    11     8     7   ar
    12    12    23    1
    13     6     7   ar
    14     6     3    1
    15    21    10    1
    16     7     4    1
    17    18     3    1
    18     3    10    1
    19     3    17    1
    20    22    11    1
    21    11     4    1
    22     4    20    1
    23     4    19    1
