@<TRIPOS>MOLECULE
LYCRXMTYUZDUGA-UYRKPTJQSA-I	11095272	-4326.729060859776
 99 101 0 0 0
SMALL
MULLIKEN NwChem

@<TRIPOS>ATOM
      1 C           0.5609    0.6763   -2.4098 C.3     1  LIG1      -0.4800000000000004
      2 C          -0.3819    2.8307   -1.4754 C.3     1  LIG1      -0.4800000000000004
      3 C          15.1835   -0.1500    3.1404 C.3     1  LIG1      -0.2599999999999998
      4 C          16.5023   -0.7931    3.6079 C.3     1  LIG1        -0.25
      5 C          14.2430   -1.0903    2.3686 C.3     1  LIG1        -0.25
      6 C          16.3882   -1.9092    4.6521 C.3     1  LIG1       -0.34999999999999964
      7 C          13.0098   -0.3909    1.7701 C.3     1  LIG1       -0.3600000000000003
      8 C           5.8753    0.8535    0.4150 C.3     1  LIG1       -0.3099999999999996
      9 C           4.8536    1.3207   -0.6442 C.3     1  LIG1       -0.1200000000000001
     10 C           9.3706    2.1354    0.1476 C.3     1  LIG1       -0.1200000000000001
     11 C          10.3565    0.9899    0.4793 C.3     1  LIG1       -0.4299999999999997
     12 C          -7.0955    0.0978   -2.0159 C.3     1  LIG1       -0.11000000000000032
     13 C          -1.1692    0.6248   -0.5843 C.3     1  LIG1       -0.04999999999999982
     14 C          -5.0696   -1.0017    2.1282 C.ar    1  LIG1       0.17999999999999972
     15 C          -9.1805   -2.4568    2.2307 C.ar    1  LIG1       0.23000000000000043
     16 C          -8.3957   -0.6929   -2.0615 C.3     1  LIG1       0.09999999999999964
     17 C           7.3369    1.0395   -0.0424 C.2     1  LIG1       0.4900000000000002
     18 C          17.7656   -2.3176    5.3105 C.2     1  LIG1           0.5
     19 C          13.3351    0.4599    0.5421 C.2     1  LIG1       0.29000000000000004
     20 C          -7.3284   -1.9837    3.1249 C.ar    1  LIG1       0.1900000000000004
     21 C          -9.6855   -0.3905   -0.0137 C.3     1  LIG1       0.15000000000000036
     22 C          -9.6536    0.0444   -1.5356 C.3     1  LIG1       0.08999999999999986
     23 C           1.1410    1.3650   -0.0426 C.3     1  LIG1       0.07000000000000028
     24 C          -6.2501   -1.6900    3.9654 C.ar    1  LIG1       0.4400000000000004
     25 C          -7.1585   -1.7415    1.7407 C.ar    1  LIG1       0.5499999999999998
     26 C           2.5403    1.8923   -0.5427 C.2     1  LIG1       0.5199999999999996
     27 C          -9.0015   -1.7941   -0.1164 C.3     1  LIG1          0.25
     28 C           0.0358    1.3863   -1.1523 C.3     1  LIG1       0.07000000000000028
     29 N          -6.3201   -1.9224    5.3299 N.pl3   1  LIG1      -0.7699999999999996
     30 N           8.0605    1.8851    0.7041 N.am    1  LIG1      -0.6200000000000001
     31 N           3.4786    1.0047   -0.2786 N.am    1  LIG1      -0.6299999999999999
     32 N          -5.1185   -1.1832    3.4585 N.ar    1  LIG1      -0.5300000000000002
     33 N          -6.0106   -1.2565    1.2089 N.ar    1  LIG1      -0.5899999999999999
     34 N          -8.5998   -2.4290    3.4171 N.ar    1  LIG1      -0.5800000000000001
     35 N          -8.3669   -2.0969    1.1790 N.ar    1  LIG1      -0.5099999999999998
     36 O           7.7165    0.4061   -1.0733 O.2     1  LIG1      -0.7200000000000006
     37 O          17.8596   -3.5229    5.6594 O.co2   1  LIG1      -0.6899999999999995
     38 O          18.6050   -1.3870    5.4481 O.co2   1  LIG1      -0.6799999999999997
     39 O          14.4688    0.5571    0.0971 O.2     1  LIG1      -0.4900000000000002
     40 O         -10.8225   -0.3950    0.6903 O.3     1  LIG1      -0.7699999999999996
     41 O           1.2921    0.0513    0.4718 O.3     1  LIG1      -0.7300000000000004
     42 O           2.6000    3.0302   -1.0920 O.2     1  LIG1      -0.6999999999999993
     43 O         -12.6823   -1.4285   -3.4999 O.2     1  LIG1      -0.6999999999999993
     44 O         -12.5171   -1.5039   -0.9376 O.3     1  LIG1      -0.7799999999999994
     45 O         -10.7178   -2.7423   -2.3393 O.3     1  LIG1      -0.7400000000000002
     46 O          -5.9089    2.9705   -1.5857 O.3     1  LIG1      -0.7100000000000009
     47 O          -5.5101    2.8926   -4.1620 O.2     1  LIG1      -0.5700000000000003
     48 O          -4.2076   -0.8222   -0.8719 O.3     1  LIG1      -0.6999999999999993
     49 O          -4.1973    1.6426   -0.0641 O.2     1  LIG1      -0.6699999999999999
     50 O          -6.9861    1.1302   -3.0337 O.3     1  LIG1      -0.5299999999999994
     51 O          -2.2769    0.6394   -1.5764 O.3     1  LIG1      -0.5199999999999996
     52 O          -8.0547   -1.7726   -1.1409 O.3     1  LIG1      -0.5500000000000007
     53 O         -10.8200   -0.1530   -2.3024 O.3     1  LIG1      -0.6400000000000006
     54 O          -4.4707    1.0968   -2.5751 O.3     1  LIG1      -0.6400000000000006
     55 P         -11.7185   -1.6011   -2.3564 P.3     1  LIG1       1.0600000000000005
     56 P          -5.7305    2.1188   -2.9263 P.3     1  LIG1       1.2599999999999998
     57 P          -3.7909    0.6892   -1.1498 P.3     1  LIG1       1.2799999999999994
     58 S          12.0280    1.3572   -0.2965 S.3     1  LIG1      0.03999999999999915
     59 H           0.9775   -0.2984   -2.1329 H       1  LIG1          0.14
     60 H          -0.2366    0.5331   -3.1491 H       1  LIG1       0.15000000000000002
     61 H           1.3606    1.2765   -2.8541 H       1  LIG1       0.15000000000000002
     62 H          -0.8354    3.3079   -0.5947 H       1  LIG1          0.14
     63 H           0.5122    3.3960   -1.7460 H       1  LIG1       0.16000000000000003
     64 H          -1.1213    2.8513   -2.2855 H       1  LIG1       0.15000000000000002
     65 H          14.6433    0.2490    4.0149 H       1  LIG1          0.13
     66 H          15.4093    0.7066    2.4922 H       1  LIG1          0.13
     67 H          17.0387   -1.1757    2.7247 H       1  LIG1          0.12
     68 H          17.1565   -0.0278    4.0426 H       1  LIG1          0.12
     69 H          14.8050   -1.5667    1.5551 H       1  LIG1          0.14
     70 H          13.9045   -1.8951    3.0337 H       1  LIG1       0.15000000000000002
     71 H          15.9182   -2.8106    4.2384 H       1  LIG1       0.10999999999999999
     72 H          15.7281   -1.5639    5.4674 H       1  LIG1          0.13
     73 H          12.5228    0.2523    2.5161 H       1  LIG1       0.18999999999999995
     74 H          12.2405   -1.1164    1.4717 H       1  LIG1       0.18999999999999995
     75 H           5.6995   -0.2181    0.5981 H       1  LIG1       0.10999999999999999
     76 H           5.7031    1.3871    1.3573 H       1  LIG1       0.09999999999999998
     77 H           4.9724    2.4020   -0.8161 H       1  LIG1       0.08999999999999997
     78 H           5.1257    0.8235   -1.5900 H       1  LIG1       0.10999999999999999
     79 H           9.7853    3.0692    0.5663 H       1  LIG1       0.10999999999999999
     80 H           9.3552    2.2347   -0.9551 H       1  LIG1       0.09999999999999998
     81 H           9.9658    0.0695    0.0411 H       1  LIG1       0.18999999999999995
     82 H          10.4729    0.8855    1.5619 H       1  LIG1       0.18999999999999995
     83 H          -6.2789   -0.6082   -2.1714 H       1  LIG1       0.18999999999999995
     84 H          -6.9959    0.5552   -1.0245 H       1  LIG1       0.19999999999999996
     85 H          -1.5323    1.0997    0.3334 H       1  LIG1       0.18000000000000005
     86 H          -0.9286   -0.4204   -0.3906 H       1  LIG1       0.18000000000000005
     87 H          -4.1444   -0.5792    1.7483 H       1  LIG1       0.18000000000000005
     88 H         -10.2205   -2.6744    2.0349 H       1  LIG1       0.19999999999999996
     89 H          -8.5945   -1.1236   -3.0455 H       1  LIG1       0.17000000000000004
     90 H          -8.8832    0.2534    0.4481 H       1  LIG1       0.07999999999999996
     91 H          -9.4676    1.1266   -1.5843 H       1  LIG1       0.15000000000000002
     92 H           0.8015    2.0482    0.7614 H       1  LIG1       0.10999999999999999
     93 H          -9.7559   -2.5631   -0.3042 H       1  LIG1       0.16000000000000003
     94 H          -5.6847   -1.3402    5.8622 H       1  LIG1          0.37
     95 H          -7.2706   -1.9411    5.6805 H       1  LIG1          0.37
     96 H         -11.8929   -1.0743   -0.2399 H       1  LIG1       0.42000000000000004
     97 H           2.2941   -0.0406    0.3547 H       1  LIG1          0.38
     98 H          -5.3272    2.6334   -0.8423 H       1  LIG1          0.49
     99 H          -5.0245   -0.9415   -0.2941 H       1  LIG1           0.49
@<TRIPOS>BOND
     1    47    56    2
     2    43    55    2
     3    60     1    1
     4    89    16    1
     5    50    56    1
     6    50    12    1
     7    56    54    1
     8    56    46    1
     9    61     1    1
    10    54    57    1
    11     1    59    1
    12     1    28    1
    13    55    45    1
    14    55    53    1
    15    55    44    1
    16    53    22    1
    17    64     2    1
    18    83    12    1
    19    16    12    1
    20    16    22    1
    21    16    52    1
    22    12    84    1
    23    63     2    1
    24    78     9    1
    25    46    98    1
    26    91    22    1
    27    51    57    1
    28    51    13    1
    29    22    21    1
    30     2    28    1
    31     2    62    1
    32    28    13    1
    33    28    23    1
    34    57    48    1
    35    57    49    2
    36    52    27    1
    37    42    26    2
    38    36    17    2
    39    80    10    1
    40    44    96    1
    41    48    99    1
    42    77     9    1
    43     9    31    1
    44     9     8    1
    45    13    86    1
    46    13    85    1
    47    26    31   am
    48    26    23    1
    49    93    27    1
    50    58    11    1
    51    58    19    1
    52    27    21    1
    53    27    35    1
    54    23    41    1
    55    23    92    1
    56    17     8    1
    57    17    30   am
    58    21    90    1
    59    21    40    1
    60    81    11    1
    61    39    19    2
    62    10    11    1
    63    10    79    1
    64    10    30    1
    65    97    41    1
    66     8    75    1
    67     8    76    1
    68    11    82    1
    69    19     7    1
    70    35    25   ar
    71    35    15   ar
    72    33    25   ar
    73    33    14   ar
    74    74     7    1
    75    69     5    1
    76    25    20   ar
    77    87    14    1
    78     7     5    1
    79     7    73    1
    80    88    15    1
    81    14    32   ar
    82    15    34   ar
    83     5    70    1
    84     5     3    1
    85    66     3    1
    86    67     4    1
    87    20    34   ar
    88    20    24   ar
    89     3     4    1
    90     3    65    1
    91    32    24   ar
    92     4    68    1
    93     4     6    1
    94    24    29    1
    95    71     6    1
    96     6    18    1
    97     6    72    1
    98    18    38   ar
    99    18    37   ar
   100    29    95    1
   101    29    94    1
