@<TRIPOS>MOLECULE
LYNVNYDEQMMNMZ-XGXNYEOVSA-J	11095271	-4099.402619096843
 94 96 0 0 0
SMALL
MULLIKEN NwChem

@<TRIPOS>ATOM
      1 C          13.6525   -0.8383   -1.2620 C.3     1  LIG1      -0.46999999999999975
      2 C          13.5140    3.0647   -1.6677 C.3     1  LIG1      -0.4800000000000004
      3 C           1.9606   -2.1092   -0.5937 C.3     1  LIG1      -0.4900000000000002
      4 C           3.3397   -0.5328   -1.9398 C.3     1  LIG1      -0.46999999999999975
      5 C          13.5975    0.5371   -1.9344 C.3     1  LIG1      -0.2599999999999998
      6 C           6.2755   -1.2744    2.2404 C.3     1  LIG1       -0.3600000000000003
      7 C           5.3234   -0.2239    2.8892 C.3     1  LIG1       -0.16000000000000014
      8 C           9.4040   -0.4459    0.3860 C.3     1  LIG1       -0.1200000000000001
      9 C           9.6316    1.0578    0.6172 C.3     1  LIG1       -0.4299999999999997
     10 C          -3.8255   -1.1933    0.7744 C.3     1  LIG1       -0.08999999999999986
     11 C           1.4673    0.4179   -0.5902 C.3     1  LIG1       -0.08000000000000007
     12 C         -10.8836    2.1061   -0.5396 C.ar    1  LIG1       0.15000000000000036
     13 C          -6.6457    1.5627   -1.2888 C.ar    1  LIG1       0.21999999999999975
     14 C          13.5332    1.7146   -0.9351 C.3     1  LIG1       -0.13999999999999968
     15 C          -5.2832   -1.2664    1.2005 C.3     1  LIG1       0.1299999999999999
     16 C           7.2561   -0.6637    1.2314 C.2     1  LIG1       0.5099999999999998
     17 C          -8.5056    2.5060   -1.6486 C.ar    1  LIG1       0.1900000000000004
     18 C          -7.0481   -1.5673   -0.4657 C.3     1  LIG1       0.09999999999999964
     19 C          -6.0543   -2.3962    0.4312 C.3     1  LIG1       0.08000000000000007
     20 C           3.5555   -0.4683    0.5437 C.3     1  LIG1       0.040000000000000036
     21 C          -9.5909    3.3157   -1.9992 C.ar    1  LIG1       0.4299999999999997
     22 C          -8.7546    1.4959   -0.6929 C.ar    1  LIG1       0.5300000000000002
     23 C           3.1286   -0.7007    2.0270 C.2     1  LIG1       0.46999999999999975
     24 C          -7.2041   -0.2663    0.3633 C.3     1  LIG1       0.2400000000000002
     25 C          12.3599    1.5169    0.0394 C.2     1  LIG1       0.28000000000000025
     26 C           2.5441   -0.6838   -0.6239 C.3     1  LIG1       0.04999999999999982
     27 N          -9.4546    4.3305   -2.9464 N.pl3   1  LIG1      -0.7800000000000002
     28 N           8.5289   -0.9834    1.4075 N.am    1  LIG1      -0.5999999999999996
     29 N           3.9260   -0.6199    3.0229 N.2     1  LIG1         -0.5
     30 N         -10.7924    3.1175   -1.4370 N.ar    1  LIG1        -0.54
     31 N          -9.9453    1.2678   -0.1144 N.ar    1  LIG1        -0.54
     32 N          -7.1742    2.5389   -2.0091 N.ar    1  LIG1      -0.5800000000000001
     33 N          -7.5392    0.8985   -0.4808 N.ar    1  LIG1         -0.5
     34 O           6.7708    0.0744    0.3011 O.2     1  LIG1      -0.6899999999999995
     35 O          -8.2144   -2.1756   -0.8770 O.3     1  LIG1      -0.7300000000000004
     36 O           4.1669    0.8088    0.4175 O.3     1  LIG1      -0.6999999999999993
     37 O           1.8835   -1.1378    2.3500 O.2     1  LIG1      -0.6699999999999999
     38 O          12.5547    1.1034    1.1731 O.2     1  LIG1      -0.4900000000000002
     39 O          -7.6923   -1.7597    2.9277 O.3     1  LIG1      -0.7699999999999996
     40 O          -7.9470   -4.3571    3.1834 O.3     1  LIG1      -0.7400000000000002
     41 O          -9.1588   -3.0890    1.2702 O.2     1  LIG1      -0.8000000000000007
     42 O          -0.7525   -1.1271    1.1752 O.2     1  LIG1      -0.7599999999999998
     43 O          -1.1246    1.3282    2.0434 O.3     1  LIG1      -0.6300000000000008
     44 O          -1.0595   -1.6274   -1.3586 O.3     1  LIG1      -0.7400000000000002
     45 O          -1.5997    0.3010   -3.0009 O.2     1  LIG1      -0.5999999999999996
     46 O          -3.1386   -0.1293    1.4716 O.3     1  LIG1      -0.5399999999999991
     47 O           0.5913    0.3410   -1.7354 O.3     1  LIG1      -0.5600000000000005
     48 O          -5.9155   -0.0007    0.8739 O.3     1  LIG1      -0.5500000000000007
     49 O          -6.5985   -3.3977    1.2274 O.3     1  LIG1      -0.6600000000000001
     50 O          -1.6006    0.6773   -0.4199 O.3     1  LIG1      -0.6899999999999995
     51 P          -7.9802   -3.1268    2.2953 P.3     1  LIG1       1.0099999999999998
     52 P          -1.5711    0.1744    1.2238 P.3     1  LIG1       1.2599999999999998
     53 P          -0.9826   -0.0639   -1.7061 P.3     1  LIG1       1.2300000000000004
     54 S          10.7412    1.8483   -0.6484 S.3     1  LIG1      0.0600000000000005
     55 H          13.7585   -1.6348   -2.0086 H       1  LIG1       0.15000000000000002
     56 H          14.4992   -0.9046   -0.5670 H       1  LIG1       0.15000000000000002
     57 H          12.7409   -1.0320   -0.6882 H       1  LIG1       0.16000000000000003
     58 H          13.4678    3.9004   -0.9606 H       1  LIG1       0.16000000000000003
     59 H          14.4196    3.1795   -2.2789 H       1  LIG1       0.16000000000000003
     60 H          12.6472    3.1430   -2.3325 H       1  LIG1       0.17000000000000004
     61 H           2.7812   -2.8403   -0.6105 H       1  LIG1       0.15000000000000002
     62 H           1.3546   -2.3090    0.2893 H       1  LIG1          0.14
     63 H           1.3289   -2.2755   -1.4691 H       1  LIG1       0.17000000000000004
     64 H           2.6641   -0.6309   -2.7952 H       1  LIG1       0.16000000000000003
     65 H           4.1171   -1.3052   -2.0118 H       1  LIG1       0.15000000000000002
     66 H           3.8314    0.4427   -1.9811 H       1  LIG1       0.15000000000000002
     67 H          14.4833    0.6781   -2.5736 H       1  LIG1       0.15000000000000002
     68 H          12.7202    0.5889   -2.5912 H       1  LIG1       0.15000000000000002
     69 H           6.8374   -1.8228    3.0034 H       1  LIG1          0.14
     70 H           5.6711   -2.0169    1.7036 H       1  LIG1       0.16000000000000003
     71 H           5.4123    0.7172    2.3406 H       1  LIG1       0.15000000000000002
     72 H           5.6893   -0.0288    3.9079 H       1  LIG1          0.14
     73 H           9.0027   -0.5659   -0.6356 H       1  LIG1       0.10999999999999999
     74 H          10.3815   -0.9545    0.4317 H       1  LIG1          0.12
     75 H           8.6744    1.5755    0.5285 H       1  LIG1       0.18999999999999995
     76 H          10.0821    1.2469    1.5942 H       1  LIG1       0.18000000000000005
     77 H          -3.7613   -1.0122   -0.3068 H       1  LIG1       0.18000000000000005
     78 H          -3.3349   -2.1481    0.9997 H       1  LIG1       0.18000000000000005
     79 H           1.9660    1.3889   -0.6486 H       1  LIG1       0.18000000000000005
     80 H           0.8924    0.4031    0.3334 H       1  LIG1          0.14
     81 H         -11.8721    1.9725   -0.0995 H       1  LIG1       0.17000000000000004
     82 H          -5.6005    1.2886   -1.2715 H       1  LIG1       0.20999999999999996
     83 H          14.4229    1.6682   -0.2922 H       1  LIG1       0.16000000000000003
     84 H          -5.3978   -1.4393    2.2723 H       1  LIG1       0.15000000000000002
     85 H          -6.4739   -1.2620   -1.3619 H       1  LIG1          0.14
     86 H          -5.3517   -2.9055   -0.2515 H       1  LIG1          0.14
     87 H           4.3239   -1.2382    0.3759 H       1  LIG1       0.17000000000000004
     88 H          -7.9600   -0.3732    1.1479 H       1  LIG1       0.18000000000000005
     89 H         -10.1030    5.0935   -2.7902 H       1  LIG1          0.36
     90 H          -8.4909    4.6312   -3.0463 H       1  LIG1          0.37
     91 H          -8.6604   -2.5859   -0.0059 H       1  LIG1       0.43999999999999995
     92 H           5.1432    0.6284    0.3200 H       1  LIG1       0.43000000000000005
     93 H           1.1498   -0.9563    1.7252 H       1  LIG1          0.47
     94 H          -0.9335   -1.7110   -0.3574 H       1  LIG1           0.48
@<TRIPOS>BOND
     1    90    27    1
     2    45    53    2
     3    27    89    1
     4    27    21    1
     5    64     4    1
     6    68     5    1
     7    67     5    1
     8    60     2    1
     9    59     2    1
    10    65     4    1
    11    32    17   ar
    12    32    13   ar
    13    55     1    1
    14    21    17   ar
    15    21    30   ar
    16    66     4    1
    17     4    26    1
    18     5     1    1
    19     5    14    1
    20    47    53    1
    21    47    11    1
    22    53    44    1
    23    53    50    1
    24     2    58    1
    25     2    14    1
    26    17    22   ar
    27    63     3    1
    28    30    12   ar
    29    85    18    1
    30    44    94    1
    31    13    82    1
    32    13    33   ar
    33     1    57    1
    34     1    56    1
    35    14    83    1
    36    14    25    1
    37    35    18    1
    38    35    91    1
    39    22    33   ar
    40    22    31   ar
    41    79    11    1
    42    54    25    1
    43    54     9    1
    44    73     8    1
    45    26     3    1
    46    26    11    1
    47    26    20    1
    48    61     3    1
    49     3    62    1
    50    11    80    1
    51    12    31   ar
    52    12    81    1
    53    33    24    1
    54    18    24    1
    55    18    19    1
    56    50    52    1
    57    77    10    1
    58    86    19    1
    59    25    38    2
    60    34    16    2
    61    92    36    1
    62    24    48    1
    63    24    88    1
    64    87    20    1
    65     8    74    1
    66     8     9    1
    67     8    28    1
    68    36    20    1
    69    19    15    1
    70    19    49    1
    71    75     9    1
    72    20    23    1
    73     9    76    1
    74    10    78    1
    75    10    15    1
    76    10    46    1
    77    48    15    1
    78    42    52    2
    79    15    84    1
    80    52    46    1
    81    52    43    1
    82    49    51    1
    83    16    28   am
    84    16     6    1
    85    41    51    2
    86    70     6    1
    87    93    37    1
    88    23    37    1
    89    23    29    2
    90     6     7    1
    91     6    69    1
    92    51    39    1
    93    51    40    1
    94    71     7    1
    95     7    29    1
    96     7    72    1
