@<TRIPOS>MOLECULE
MARGKPIMNMASKJ-CMAXTTDKSA-N	6044849	-1983.7945647866673
 121 121 0 0 0
SMALL
MULLIKEN NwChem

@<TRIPOS>ATOM
      1 C           6.1741   -0.4659    0.0674 C.3     1  LIG1            -0.54
      2 C           6.8730   -2.6466   -1.0544 C.3     1  LIG1        -0.54
      3 C           3.0080   -2.5479    4.4230 C.3     1  LIG1        -0.54
      4 C           1.8952   -5.7758   -0.9562 C.3     1  LIG1        -0.54
      5 C           4.0047   -0.0072   -2.8724 C.3     1  LIG1        -0.54
      6 C           1.3297    0.0750    2.2960 C.3     1  LIG1      -0.5499999999999998
      7 C          -1.5173   -3.2832   -0.5707 C.3     1  LIG1      -0.5499999999999998
      8 C          -0.2779    0.3639   -4.4216 C.3     1  LIG1      -0.5499999999999998
      9 C          -0.6179    4.7418   -0.4826 C.3     1  LIG1      -0.5300000000000002
     10 C          -7.0236    6.2323    2.1945 C.3     1  LIG1       -0.23000000000000043
     11 C           6.3309   -1.9146    2.7681 C.3     1  LIG1      -0.2999999999999998
     12 C           2.6657   -4.6652    2.1614 C.3     1  LIG1      -0.3099999999999996
     13 C           2.9069   -3.1259   -2.3328 C.3     1  LIG1      -0.33999999999999986
     14 C           2.3030    1.1582   -0.5123 C.3     1  LIG1      -0.33000000000000007
     15 C          -1.4667   -1.0133    1.6359 C.3     1  LIG1      -0.3200000000000003
     16 C          -2.3545   -1.7358   -3.0500 C.3     1  LIG1      -0.3200000000000003
     17 C          -1.2559    2.9929   -3.3779 C.3     1  LIG1      -0.2999999999999998
     18 C          -5.9230    1.8107    2.8122 C.ar    1  LIG1      -0.16999999999999993
     19 C           6.6279   -2.5340    1.4191 C.2     1  LIG1      -0.1900000000000004
     20 C           4.8594   -1.4976    3.0233 C.3     1  LIG1      -0.33999999999999986
     21 C           3.6776   -3.5515    2.2066 C.2     1  LIG1      -0.16999999999999993
     22 C           1.5354   -4.3667    1.1392 C.3     1  LIG1      -0.33999999999999986
     23 C           2.4431   -3.3069   -0.9140 C.2     1  LIG1      -0.17999999999999972
     24 C           2.2642   -1.8783   -3.0040 C.3     1  LIG1      -0.33999999999999986
     25 C           1.9779   -0.0404   -1.3695 C.2     1  LIG1      -0.16999999999999993
     26 C           1.0689    1.6578    0.2781 C.3     1  LIG1      -0.34999999999999964
     27 C          -0.7519    0.0975    0.9018 C.2     1  LIG1      -0.16999999999999993
     28 C          -2.7053   -1.5058    0.8516 C.3     1  LIG1      -0.34999999999999964
     29 C          -2.6860   -1.3428   -1.6293 C.2     1  LIG1      -0.1900000000000004
     30 C          -2.6444   -0.6073   -4.0614 C.3     1  LIG1      -0.34999999999999964
     31 C          -2.1078    1.7488   -3.4569 C.2     1  LIG1      -0.1900000000000004
     32 C          -1.9236    4.1438   -2.5906 C.3     1  LIG1      -0.34999999999999964
     33 C          -4.6084    1.8798    2.3530 C.ar    1  LIG1      -0.23000000000000043
     34 C          -6.7955    2.8700    2.5614 C.ar    1  LIG1      -0.20000000000000018
     35 C          -2.6718    3.2768   -0.3734 C.2     1  LIG1      -0.2400000000000002
     36 C          -2.7197    3.0712    1.1291 C.3     1  LIG1      -0.41999999999999993
     37 C           6.5749   -1.9145    0.2309 C.2     1  LIG1      0.17999999999999972
     38 C           3.8366   -2.6234    3.1631 C.2     1  LIG1      0.16000000000000014
     39 C           1.9874   -4.4156   -0.3110 C.2     1  LIG1      0.16999999999999993
     40 C           2.7044   -0.5769   -2.3622 C.2     1  LIG1      0.16999999999999993
     41 C           0.4646    0.5941    1.1711 C.2     1  LIG1      0.16000000000000014
     42 C          -2.3471   -2.0210   -0.5245 C.2     1  LIG1      0.16999999999999993
     43 C          -1.7017    0.5688   -3.9435 C.2     1  LIG1      0.16999999999999993
     44 C          -1.7985    4.0164   -1.0805 C.2     1  LIG1      0.17999999999999972
     45 C          -4.1461    2.9936    1.6413 C.ar    1  LIG1       0.1200000000000001
     46 C          -6.3638    3.9861    1.8465 C.ar    1  LIG1       0.3099999999999996
     47 C          -5.0375    4.0501    1.3801 C.ar    1  LIG1       0.2400000000000002
     48 O          -4.6702    5.1695    0.6812 O.3     1  LIG1      -0.6899999999999995
     49 O          -7.2706    4.9782    1.5551 O.3     1  LIG1      -0.5500000000000007
     50 H           6.7260    0.0086   -0.7539 H       1  LIG1       0.16000000000000003
     51 H           6.3467    0.1229    0.9740 H       1  LIG1       0.16000000000000003
     52 H           5.1082   -0.3879   -0.1834 H       1  LIG1       0.18000000000000005
     53 H           7.1199   -3.6993   -0.8833 H       1  LIG1       0.16000000000000003
     54 H           6.0130   -2.6077   -1.7383 H       1  LIG1       0.18000000000000005
     55 H           7.7133   -2.1802   -1.5881 H       1  LIG1       0.16000000000000003
     56 H           2.2157   -3.2989    4.4722 H       1  LIG1       0.16000000000000003
     57 H           3.6386   -2.6607    5.3163 H       1  LIG1       0.16000000000000003
     58 H           2.5330   -1.5604    4.5023 H       1  LIG1       0.17000000000000004
     59 H           2.3066   -5.8049   -1.9681 H       1  LIG1       0.16000000000000003
     60 H           2.4319   -6.5261   -0.3589 H       1  LIG1       0.16000000000000003
     61 H           0.8489   -6.1064   -1.0050 H       1  LIG1       0.16000000000000003
     62 H           3.9134    0.2554   -3.9358 H       1  LIG1       0.16000000000000003
     63 H           4.3260    0.8847   -2.3270 H       1  LIG1       0.16000000000000003
     64 H           4.8156   -0.7445   -2.8046 H       1  LIG1       0.17000000000000004
     65 H           1.9140    0.8841    2.7558 H       1  LIG1       0.16000000000000003
     66 H           0.7361   -0.4008    3.0830 H       1  LIG1       0.16000000000000003
     67 H           2.0487   -0.6768    1.9364 H       1  LIG1       0.18000000000000005
     68 H          -1.6543   -3.8358   -1.5065 H       1  LIG1       0.16000000000000003
     69 H          -0.4450   -3.0610   -0.4877 H       1  LIG1       0.18000000000000005
     70 H          -1.7734   -3.9568    0.2557 H       1  LIG1       0.15000000000000002
     71 H          -0.0078    1.1115   -5.1782 H       1  LIG1       0.16000000000000003
     72 H           0.4459    0.4591   -3.6039 H       1  LIG1       0.17000000000000004
     73 H          -0.1370   -0.6251   -4.8686 H       1  LIG1       0.16000000000000003
     74 H          -0.7011    5.8246   -0.6499 H       1  LIG1       0.17000000000000004
     75 H          -0.4948    4.5654    0.5881 H       1  LIG1       0.17000000000000004
     76 H           0.3076    4.4166   -0.9772 H       1  LIG1       0.17000000000000004
     77 H          -7.0620    6.1254    3.2881 H       1  LIG1       0.15000000000000002
     78 H          -6.0550    6.6493    1.9020 H       1  LIG1       0.17000000000000004
     79 H          -7.8237    6.9017    1.8686 H       1  LIG1       0.17000000000000004
     80 H           6.6363   -2.6125    3.5570 H       1  LIG1          0.14
     81 H           6.9516   -1.0158    2.9008 H       1  LIG1       0.15000000000000002
     82 H           3.1608   -5.6058    1.8820 H       1  LIG1          0.14
     83 H           2.2128   -4.8364    3.1434 H       1  LIG1          0.14
     84 H           4.0007   -3.0076   -2.3590 H       1  LIG1       0.16000000000000003
     85 H           2.6809   -4.0064   -2.9434 H       1  LIG1       0.15000000000000002
     86 H           3.1011    0.9021    0.2019 H       1  LIG1       0.16000000000000003
     87 H           2.6987    1.9853   -1.1162 H       1  LIG1       0.15000000000000002
     88 H          -0.7861   -1.8574    1.8110 H       1  LIG1       0.17000000000000004
     89 H          -1.7901   -0.6794    2.6339 H       1  LIG1       0.16000000000000003
     90 H          -1.3002   -2.0361   -3.1350 H       1  LIG1       0.17000000000000004
     91 H          -2.9405   -2.6228   -3.3364 H       1  LIG1       0.15000000000000002
     92 H          -0.2720    2.7650   -2.9422 H       1  LIG1       0.16000000000000003
     93 H          -1.0473    3.3478   -4.3998 H       1  LIG1       0.15000000000000002
     94 H          -6.2662    0.9400    3.3645 H       1  LIG1       0.15000000000000002
     95 H           6.9006   -3.5887    1.4265 H       1  LIG1          0.13
     96 H           4.8462   -0.8973    3.9431 H       1  LIG1          0.14
     97 H           4.5390   -0.8170    2.2241 H       1  LIG1       0.16000000000000003
     98 H           4.3036   -3.4755    1.3204 H       1  LIG1          0.13
     99 H           0.7220   -5.0904    1.2880 H       1  LIG1          0.14
    100 H           1.1252   -3.3782    1.3741 H       1  LIG1       0.16000000000000003
    101 H           2.4727   -2.3989   -0.3148 H       1  LIG1          0.13
    102 H           2.5285   -1.8807   -4.0702 H       1  LIG1          0.14
    103 H           1.1747   -1.9815   -2.9445 H       1  LIG1       0.16000000000000003
    104 H           1.0509   -0.5492   -1.1058 H       1  LIG1          0.13
    105 H           1.3730    2.5267    0.8801 H       1  LIG1          0.14
    106 H           0.3093    2.0096   -0.4301 H       1  LIG1       0.16000000000000003
    107 H          -1.2830    0.5039    0.0416 H       1  LIG1          0.13
    108 H          -3.1991   -2.2983    1.4328 H       1  LIG1          0.14
    109 H          -3.4215   -0.6791    0.7681 H       1  LIG1       0.15000000000000002
    110 H          -3.2643   -0.4254   -1.5142 H       1  LIG1          0.12
    111 H          -2.5729   -1.0224   -5.0770 H       1  LIG1          0.14
    112 H          -3.6820   -0.2732   -3.9315 H       1  LIG1          0.14
    113 H          -3.1467    1.8521   -3.1433 H       1  LIG1          0.13
    114 H          -1.4720    5.0943   -2.9016 H       1  LIG1       0.15000000000000002
    115 H          -2.9806    4.1963   -2.8794 H       1  LIG1       0.15000000000000002
    116 H          -3.9193    1.0615    2.5479 H       1  LIG1       0.16000000000000003
    117 H          -7.8286    2.8542    2.8949 H       1  LIG1       0.15000000000000002
    118 H          -3.4648    2.7674   -0.9222 H       1  LIG1       0.15000000000000002
    119 H          -2.1885    2.1513    1.3996 H       1  LIG1       0.18000000000000005
    120 H          -2.1871    3.8853    1.6379 H       1  LIG1       0.18000000000000005
    121 H          -3.8643    4.9707    0.1683 H       1  LIG1       0.43000000000000005
@<TRIPOS>BOND
     1    71     8    1
     2   111    30    1
     3    73     8    1
     4     8    43    1
     5     8    72    1
     6    93    17    1
     7   102    24    1
     8    30    43    1
     9    30   112    1
    10    30    16    1
    11    43    31    2
    12    62     5    1
    13    31    17    1
    14    31   113    1
    15    17    92    1
    16    17    32    1
    17    91    16    1
    18    90    16    1
    19    16    29    1
    20    24   103    1
    21    24    40    1
    22    24    13    1
    23    85    13    1
    24   114    32    1
    25   115    32    1
    26     5    64    1
    27     5    40    1
    28     5    63    1
    29    32    44    1
    30    40    25    2
    31    84    13    1
    32    13    23    1
    33    59     4    1
    34    54     2    1
    35    29   110    1
    36    29    42    2
    37    55     2    1
    38    68     7    1
    39    25   104    1
    40    25    14    1
    41    87    14    1
    42    44     9    1
    43    44    35    2
    44     2    53    1
    45     2    37    1
    46    61     4    1
    47    76     9    1
    48     4    60    1
    49     4    39    1
    50   118    35    1
    51    23   101    1
    52    23    39    2
    53    50     1    1
    54    74     9    1
    55     7    42    1
    56     7    69    1
    57     7    70    1
    58    42    28    1
    59    14    86    1
    60    14    26    1
    61     9    75    1
    62   106    26    1
    63    35    36    1
    64    39    22    1
    65    52     1    1
    66   107    27    1
    67     1    37    1
    68     1    51    1
    69   121    48    1
    70    37    19    2
    71    26   105    1
    72    26    41    1
    73    48    47    1
    74   109    28    1
    75    28   108    1
    76    28    15    1
    77    27    41    2
    78    27    15    1
    79    36   119    1
    80    36   120    1
    81    36    45    1
    82    22    99    1
    83    22   100    1
    84    22    12    1
    85    41     6    1
    86    98    21    1
    87    47    45   ar
    88    47    46   ar
    89    19    95    1
    90    19    11    1
    91    49    46    1
    92    49    10    1
    93    15    88    1
    94    15    89    1
    95    45    33   ar
    96    46    34   ar
    97    79    10    1
    98    82    12    1
    99    78    10    1
   100    67     6    1
   101    12    21    1
   102    12    83    1
   103    10    77    1
   104    21    38    2
   105    97    20    1
   106     6    65    1
   107     6    66    1
   108    33   116    1
   109    33    18   ar
   110    34    18   ar
   111    34   117    1
   112    11    81    1
   113    11    20    1
   114    11    80    1
   115    18    94    1
   116    20    38    1
   117    20    96    1
   118    38     3    1
   119     3    56    1
   120     3    58    1
   121     3    57    1
