@<TRIPOS>MOLECULE
MBMBGCFOFBJSGT-KUBAVDMBSA-M	11095269	-1007.0947281708023
 55 54 0 0 0
SMALL
MULLIKEN NwChem

@<TRIPOS>ATOM
      1 C          11.6709   -0.3636    1.7747 C.3     1  LIG1      -0.4500000000000002
      2 C          10.5573    0.6887    1.6276 C.3     1  LIG1      -0.2999999999999998
      3 C           9.9579    0.6860    0.2460 C.2     1  LIG1      -0.1200000000000001
      4 C           8.7112    0.3563   -0.1117 C.2     1  LIG1      -0.1299999999999999
      5 C           7.5662   -0.0547    0.7850 C.3     1  LIG1      -0.3600000000000003
      6 C           6.4328    0.9432    0.7145 C.2     1  LIG1      -0.1200000000000001
      7 C           5.1957    0.7452    0.2445 C.2     1  LIG1      -0.1200000000000001
      8 C           4.5993   -0.5361   -0.2910 C.3     1  LIG1      -0.3600000000000003
      9 C           3.5260   -1.0570    0.6384 C.2     1  LIG1      -0.1200000000000001
     10 C           2.2180   -1.1892    0.3894 C.2     1  LIG1      -0.1200000000000001
     11 C           1.4680   -0.8547   -0.8789 C.3     1  LIG1      -0.3600000000000003
     12 C           0.5006    0.2856   -0.6458 C.2     1  LIG1      -0.1299999999999999
     13 C          -0.8333    0.2161   -0.5618 C.2     1  LIG1      -0.1200000000000001
     14 C          -1.7158   -0.9995   -0.7196 C.3     1  LIG1      -0.3600000000000003
     15 C          -2.6831   -0.8300   -1.8701 C.2     1  LIG1      -0.1299999999999999
     16 C          -4.0192   -0.7659   -1.8029 C.2     1  LIG1      -0.1200000000000001
     17 C          -4.9049   -0.8343   -0.5831 C.3     1  LIG1      -0.3600000000000003
     18 C          -5.6247    0.4803   -0.3564 C.2     1  LIG1      -0.13999999999999968
     19 C          -6.9402    0.7123   -0.4615 C.2     1  LIG1      -0.1200000000000001
     20 C          -8.0417   -0.2534   -0.7929 C.3     1  LIG1      -0.29000000000000004
     21 C          -9.0876   -0.3402    0.3369 C.3     1  LIG1       -0.3700000000000001
     22 C          -9.9355    0.9743    0.5542 C.2     1  LIG1       0.5199999999999996
     23 O          -9.7185    1.9121   -0.2611 O.co2   1  LIG1      -0.6600000000000001
     24 O         -10.7375    0.9156    1.5138 O.co2   1  LIG1      -0.6899999999999995
     25 H          12.1275   -0.3220    2.7706 H       1  LIG1       0.15000000000000002
     26 H          11.2723   -1.3728    1.6215 H       1  LIG1       0.15000000000000002
     27 H          12.4640   -0.2046    1.0337 H       1  LIG1       0.15000000000000002
     28 H           9.7904    0.5177    2.3909 H       1  LIG1       0.15000000000000002
     29 H          10.9797    1.6834    1.8339 H       1  LIG1       0.15000000000000002
     30 H          10.6541    0.9625   -0.5485 H       1  LIG1          0.13
     31 H           8.4516    0.4060   -1.1697 H       1  LIG1          0.13
     32 H           7.2186   -1.0517    0.4872 H       1  LIG1       0.16000000000000003
     33 H           7.9034   -0.1445    1.8251 H       1  LIG1       0.16000000000000003
     34 H           6.6915    1.9400    1.0731 H       1  LIG1          0.14
     35 H           4.4978    1.5824    0.2760 H       1  LIG1          0.14
     36 H           4.1864   -0.3487   -1.2895 H       1  LIG1       0.16000000000000003
     37 H           5.3757   -1.3016   -0.4154 H       1  LIG1       0.16000000000000003
     38 H           3.8884   -1.3217    1.6323 H       1  LIG1          0.14
     39 H           1.5815   -1.5549    1.1957 H       1  LIG1          0.14
     40 H           0.9303   -1.7476   -1.2206 H       1  LIG1       0.16000000000000003
     41 H           2.1633   -0.5842   -1.6831 H       1  LIG1       0.16000000000000003
     42 H           0.9775    1.2540   -0.4901 H       1  LIG1          0.14
     43 H          -1.3820    1.1401   -0.3777 H       1  LIG1          0.14
     44 H          -1.1081   -1.9011   -0.8744 H       1  LIG1       0.16000000000000003
     45 H          -2.2665   -1.1556    0.2161 H       1  LIG1       0.16000000000000003
     46 H          -2.2059   -0.7217   -2.8453 H       1  LIG1          0.14
     47 H          -4.5647   -0.6066   -2.7340 H       1  LIG1          0.14
     48 H          -4.3183   -1.0972    0.3077 H       1  LIG1       0.16000000000000003
     49 H          -5.6360   -1.6400   -0.7216 H       1  LIG1       0.16000000000000003
     50 H          -4.9636    1.3113   -0.1024 H       1  LIG1          0.13
     51 H          -7.3228    1.7122   -0.2645 H       1  LIG1          0.13
     52 H          -7.6464   -1.2489   -1.0442 H       1  LIG1          0.13
     53 H          -8.5644    0.1373   -1.6761 H       1  LIG1          0.13
     54 H          -8.6062   -0.6065    1.2880 H       1  LIG1          0.13
     55 H          -9.7939   -1.1546    0.1174 H       1  LIG1           0.13
@<TRIPOS>BOND
     1    46    15    1
     2    47    16    1
     3    15    16    2
     4    15    14    1
     5    16    17    1
     6    41    11    1
     7    53    20    1
     8    36     8    1
     9    40    11    1
    10    31     4    1
    11    52    20    1
    12    11    12    1
    13    11    10    1
    14    44    14    1
    15    20    19    1
    16    20    21    1
    17    49    17    1
    18    14    13    1
    19    14    45    1
    20    12    13    2
    21    12    42    1
    22    17    18    1
    23    17    48    1
    24    13    43    1
    25    30     3    1
    26    19    18    2
    27    19    51    1
    28    37     8    1
    29    18    50    1
    30     8     7    1
    31     8     9    1
    32    23    22   ar
    33     4     3    2
    34     4     5    1
    35    55    21    1
    36     7    35    1
    37     7     6    2
    38     3     2    1
    39    21    22    1
    40    21    54    1
    41    10     9    2
    42    10    39    1
    43    32     5    1
    44    22    24   ar
    45     9    38    1
    46     6     5    1
    47     6    34    1
    48     5    33    1
    49    27     1    1
    50    26     1    1
    51     2     1    1
    52     2    29    1
    53     2    28    1
    54     1    25    1
