@<TRIPOS>MOLECULE
MBZYKEVPFYHDOH-BQNIITSRSA-N	6044853	-1249.0980281422221
 83 86 0 0 0
SMALL
MULLIKEN NwChem

@<TRIPOS>ATOM
      1 C          -7.3524    2.2807   -0.7085 C.3     1  LIG1      -0.45999999999999996
      2 C          -6.6880    1.5703    1.6190 C.3     1  LIG1      -0.45999999999999996
      3 C          -2.7792   -1.7020   -1.9395 C.3     1  LIG1      -0.4800000000000004
      4 C           6.2706   -0.5495    0.9445 C.3     1  LIG1      -0.46999999999999975
      5 C           5.4273   -2.3809   -0.5007 C.3     1  LIG1      -0.4800000000000004
      6 C           2.1241   -2.3057   -0.6758 C.3     1  LIG1      -0.4800000000000004
      7 C          -2.2727    2.2774    0.3500 C.3     1  LIG1         -0.5
      8 C           0.4776    3.1625    0.3928 C.3     1  LIG1      -0.4900000000000002
      9 C          -5.4899   -0.0426   -1.7666 C.3     1  LIG1      -0.28000000000000025
     10 C          -6.0474    0.1149   -0.3408 C.3     1  LIG1      -0.2599999999999998
     11 C          -4.0580    0.4880   -1.9751 C.3     1  LIG1      -0.2699999999999996
     12 C           2.7247    1.3887   -0.4920 C.3     1  LIG1      -0.33999999999999986
     13 C           3.7999    0.3197   -0.6751 C.3     1  LIG1      -0.29000000000000004
     14 C          -1.2189    1.3561   -2.3683 C.3     1  LIG1      -0.29000000000000004
     15 C          -0.0717   -0.8060    1.1308 C.3     1  LIG1      -0.3600000000000003
     16 C           3.5953   -3.1757    1.9767 C.3     1  LIG1      -0.29000000000000004
     17 C           2.3648   -2.2685    1.8317 C.3     1  LIG1      -0.3200000000000003
     18 C           0.0676    2.0633   -1.8899 C.3     1  LIG1      -0.3099999999999996
     19 C          -1.0674    0.3342    1.3052 C.3     1  LIG1      -0.28000000000000025
     20 C          -6.2900    1.5618    0.1363 C.3     1  LIG1      -0.07000000000000028
     21 C          -2.9438   -0.3233   -1.2741 C.3     1  LIG1      -0.08000000000000007
     22 C          -1.5624    0.3890   -1.2249 C.3     1  LIG1      -0.09999999999999964
     23 C           1.2458   -0.3503    0.5359 C.2     1  LIG1      0.05999999999999961
     24 C           1.3646    0.8556   -0.0606 C.2     1  LIG1      0.07000000000000028
     25 C           3.7688   -0.6407    0.5173 C.3     1  LIG1      -0.1299999999999999
     26 C           4.9050   -2.3793    1.9785 C.3     1  LIG1       0.1299999999999999
     27 C           5.0679   -1.4924    0.7089 C.3     1  LIG1      0.08000000000000007
     28 C           2.3955   -1.3925    0.5518 C.3     1  LIG1      0.05999999999999961
     29 C          -1.2054    1.2074    0.0543 C.3     1  LIG1      0.08000000000000007
     30 C           0.1914    1.8294   -0.3308 C.3     1  LIG1      0.07000000000000028
     31 O           5.0235   -1.6237    3.1912 O.3     1  LIG1      -0.6899999999999995
     32 H          -8.3053    1.7360   -0.6769 H       1  LIG1          0.14
     33 H          -7.0546    2.3698   -1.7587 H       1  LIG1       0.15000000000000002
     34 H          -7.5349    3.2934   -0.3306 H       1  LIG1          0.14
     35 H          -7.6230    1.0159    1.7735 H       1  LIG1          0.14
     36 H          -5.9166    1.1024    2.2428 H       1  LIG1          0.14
     37 H          -6.8436    2.5922    1.9842 H       1  LIG1          0.14
     38 H          -2.4043   -1.5913   -2.9656 H       1  LIG1          0.14
     39 H          -2.0605   -2.3205   -1.3881 H       1  LIG1       0.15000000000000002
     40 H          -3.7216   -2.2571   -1.9864 H       1  LIG1       0.15000000000000002
     41 H           6.5650   -0.0352    0.0239 H       1  LIG1       0.15000000000000002
     42 H           6.0558    0.2013    1.7095 H       1  LIG1          0.14
     43 H           7.1351   -1.1270    1.2919 H       1  LIG1          0.14
     44 H           6.4261   -2.8119   -0.3592 H       1  LIG1          0.14
     45 H           4.7353   -3.2097   -0.6576 H       1  LIG1       0.15000000000000002
     46 H           5.4540   -1.7930   -1.4246 H       1  LIG1       0.15000000000000002
     47 H           2.7673   -3.1872   -0.7045 H       1  LIG1       0.15000000000000002
     48 H           1.0904   -2.6667   -0.6435 H       1  LIG1       0.15000000000000002
     49 H           2.2472   -1.7648   -1.6174 H       1  LIG1       0.15000000000000002
     50 H          -2.4005    2.9939   -0.4679 H       1  LIG1       0.15000000000000002
     51 H          -3.2392    1.7975    0.5292 H       1  LIG1       0.16000000000000003
     52 H          -2.0255    2.8445    1.2535 H       1  LIG1          0.14
     53 H           1.4371    3.5842    0.0799 H       1  LIG1       0.15000000000000002
     54 H          -0.2860    3.9124    0.1666 H       1  LIG1       0.15000000000000002
     55 H           0.5131    3.0250    1.4801 H       1  LIG1          0.14
     56 H          -5.5339   -1.1037   -2.0422 H       1  LIG1          0.13
     57 H          -6.1559    0.4681   -2.4736 H       1  LIG1          0.13
     58 H          -5.3723   -0.3817    0.3699 H       1  LIG1          0.13
     59 H          -7.0018   -0.4287   -0.2741 H       1  LIG1          0.12
     60 H          -3.8451    0.5044   -3.0529 H       1  LIG1          0.13
     61 H          -4.0219    1.5336   -1.6519 H       1  LIG1          0.14
     62 H           3.0714    2.0870    0.2848 H       1  LIG1       0.15000000000000002
     63 H           2.6409    1.9927   -1.4021 H       1  LIG1       0.15000000000000002
     64 H           4.7751    0.8075   -0.7657 H       1  LIG1          0.14
     65 H           3.6396   -0.2247   -1.6125 H       1  LIG1          0.14
     66 H          -2.0202    2.0842   -2.5239 H       1  LIG1          0.14
     67 H          -1.0791    0.8351   -3.3222 H       1  LIG1          0.13
     68 H           0.1014   -1.2598    2.1122 H       1  LIG1       0.15000000000000002
     69 H          -0.5146   -1.6075    0.5200 H       1  LIG1       0.16000000000000003
     70 H           3.5331   -3.7313    2.9195 H       1  LIG1          0.14
     71 H           3.6121   -3.9217    1.1736 H       1  LIG1       0.15000000000000002
     72 H           1.4648   -2.8926    1.8484 H       1  LIG1       0.15000000000000002
     73 H           2.2929   -1.6151    2.7143 H       1  LIG1          0.14
     74 H           0.9338    1.6546   -2.4160 H       1  LIG1       0.15000000000000002
     75 H           0.0449    3.1342   -2.1194 H       1  LIG1          0.13
     76 H          -0.7347    0.9724    2.1358 H       1  LIG1          0.13
     77 H          -2.0460   -0.0671    1.6002 H       1  LIG1          0.13
     78 H          -5.3503    2.1234    0.0434 H       1  LIG1          0.13
     79 H          -3.2560   -0.5018   -0.2359 H       1  LIG1          0.13
     80 H          -0.8071   -0.4039   -1.2814 H       1  LIG1          0.13
     81 H           3.7355    0.0079    1.4104 H       1  LIG1          0.12
     82 H           5.7544   -3.0721    2.0213 H       1  LIG1          0.13
     83 H           4.2921   -0.9880    3.2204 H       1  LIG1       0.42000000000000004
@<TRIPOS>BOND
     1    67    14    1
     2    60    11    1
     3    38     3    1
     4    66    14    1
     5    57     9    1
     6    74    18    1
     7    14    18    1
     8    14    22    1
     9    75    18    1
    10    56     9    1
    11    40     3    1
    12    11     9    1
    13    11    61    1
    14    11    21    1
    15     3    39    1
    16     3    21    1
    17    18    30    1
    18     9    10    1
    19    33     1    1
    20    49     6    1
    21    65    13    1
    22    46     5    1
    23    63    12    1
    24    80    22    1
    25    21    22    1
    26    21    79    1
    27    22    29    1
    28    64    13    1
    29     1    32    1
    30     1    34    1
    31     1    20    1
    32    47     6    1
    33     6    48    1
    34     6    28    1
    35    13    12    1
    36    13    25    1
    37    45     5    1
    38     5    44    1
    39     5    27    1
    40    12    24    1
    41    12    62    1
    42    50     7    1
    43    10    59    1
    44    10    20    1
    45    10    58    1
    46    30    24    1
    47    30    29    1
    48    30     8    1
    49    24    23    2
    50    41     4    1
    51    78    20    1
    52    29     7    1
    53    29    19    1
    54    53     8    1
    55    20     2    1
    56    54     8    1
    57     7    51    1
    58     7    52    1
    59     8    55    1
    60    25    28    1
    61    25    27    1
    62    25    81    1
    63    69    15    1
    64    23    28    1
    65    23    15    1
    66    28    17    1
    67    27     4    1
    68    27    26    1
    69     4    43    1
    70     4    42    1
    71    15    19    1
    72    15    68    1
    73    71    16    1
    74    19    77    1
    75    19    76    1
    76     2    35    1
    77     2    37    1
    78     2    36    1
    79    17    72    1
    80    17    16    1
    81    17    73    1
    82    16    26    1
    83    16    70    1
    84    26    82    1
    85    26    31    1
    86    31    83    1
