@<TRIPOS>MOLECULE
MCAHWIHFGHIESP-UHFFFAOYSA-L	6044854	-2627.0719684785877
 4 2 0 0 0
SMALL
MULLIKEN NwChem

@<TRIPOS>ATOM
      1 O          -1.4042    0.7307   -0.3009 O.3     1  HOH1       -0.8499999999999996
      2 O           0.8559    0.4714    1.2805 O.3     1  HOH1       -0.8399999999999999
      3 O           0.8038   -0.6435   -1.2541 O.3     1  HOH1       -0.8399999999999999
      4 SE         -0.1441   -0.3486    0.1488 Se      1  HOH1       0.5300000000000011
@<TRIPOS>BOND
     1     3     4    1
     2     4     2    1
