@<TRIPOS>MOLECULE
MCGXOCXFFNKASF-FMDGEEDCSA-N	6044855	-799.8733240418617
 31 31 0 0 0
SMALL
MULLIKEN NwChem

@<TRIPOS>ATOM
      1 C           3.3075    1.4438   -0.3561 C.3     1  LIG1       -0.5300000000000002
      2 C          -2.1782   -2.2284    0.4355 C.3     1  LIG1       -0.040000000000000036
      3 C           2.0724    1.9043    0.3685 C.2     1  LIG1       0.5199999999999996
      4 C          -1.5576   -0.9511    1.0274 C.3     1  LIG1       0.07000000000000028
      5 C           0.5028    0.3866   -0.5951 C.3     1  LIG1       -0.040000000000000036
      6 C          -1.8895    0.3486    0.2757 C.3     1  LIG1       0.08999999999999986
      7 C          -0.9845    0.5674   -0.9576 C.3     1  LIG1       0.09999999999999964
      8 C           0.7507   -0.9692    0.1074 C.3     1  LIG1       0.2400000000000002
      9 N           0.7861   -2.0399   -0.8547 N.3     1  LIG1        -0.79
     10 N           0.8708    1.4866    0.2940 N.2     1  LIG1      -0.5099999999999998
     11 O          -1.6777   -3.3741    1.1058 O.3     1  LIG1      -0.6899999999999995
     12 O           2.3666    2.9199    1.2135 O.2     1  LIG1      -0.6099999999999994
     13 O          -1.8167    1.4773    1.1301 O.3     1  LIG1      -0.6999999999999993
     14 O          -1.2653   -0.3472   -2.0206 O.3     1  LIG1      -0.6699999999999999
     15 O          -0.1428   -1.1301    1.2341 O.3     1  LIG1      -0.5399999999999991
     16 H           3.1090    0.6209   -1.0432 H       1  LIG1       0.19999999999999996
     17 H           4.0513    1.1208    0.3800 H       1  LIG1       0.19999999999999996
     18 H           3.7421    2.2850   -0.9073 H       1  LIG1       0.19999999999999996
     19 H          -3.2657   -2.1941    0.5825 H       1  LIG1       0.15000000000000002
     20 H          -1.9937   -2.2909   -0.6446 H       1  LIG1          0.14
     21 H          -1.9457   -0.8322    2.0440 H       1  LIG1       0.16000000000000003
     22 H           1.0708    0.3869   -1.5335 H       1  LIG1       0.17000000000000004
     23 H          -2.9347    0.2867   -0.0634 H       1  LIG1       0.16000000000000003
     24 H          -1.1313    1.6042   -1.2909 H       1  LIG1       0.15000000000000002
     25 H           1.7240   -0.9303    0.6074 H       1  LIG1       0.16000000000000003
     26 H           0.7808   -2.9419   -0.3857 H       1  LIG1       0.32999999999999996
     27 H          -0.0086   -1.9965   -1.4860 H       1  LIG1          0.35
     28 H          -0.7985   -3.1082    1.4283 H       1  LIG1       0.42000000000000004
     29 H           1.5305    3.1743    1.6467 H       1  LIG1       0.43999999999999995
     30 H          -0.8609    1.6767    1.2137 H       1  LIG1       0.42000000000000004
     31 H          -2.2008   -0.2549   -2.2585 H       1  LIG1       0.43999999999999995
@<TRIPOS>BOND
     1    31    14    1
     2    14     7    1
     3    22     5    1
     4    27     9    1
     5    24     7    1
     6    16     1    1
     7     7     5    1
     8     7     6    1
     9    18     1    1
    10     9    26    1
    11     9     8    1
    12    20     2    1
    13     5     8    1
    14     5    10    1
    15     1     3    1
    16     1    17    1
    17    23     6    1
    18     8    25    1
    19     8    15    1
    20     6     4    1
    21     6    13    1
    22    10     3    2
    23     3    12    1
    24     2    19    1
    25     2     4    1
    26     2    11    1
    27     4    15    1
    28     4    21    1
    29    11    28    1
    30    13    30    1
    31    12    29    1
