@<TRIPOS>MOLECULE
MCKAJXMRULSUKI-UZAAGFTCSA-J	11095266	-1820.5874807718747
 30 30 0 0 0
SMALL
MULLIKEN NwChem

@<TRIPOS>ATOM
      1 C          -1.8340   -1.5202    1.1328 C.3     1  LIG1       0.1200000000000001
      2 C          -1.0689   -2.4151    0.1231 C.3     1  LIG1       0.08999999999999986
      3 C          -0.8820   -0.4742    1.7059 C.3     1  LIG1       0.07000000000000028
      4 C           0.0823   -1.7696   -0.7154 C.3     1  LIG1       0.13999999999999968
      5 C          -0.3629    0.3720    0.4624 C.3     1  LIG1       0.11000000000000032
      6 C           0.8195   -0.4984   -0.1053 C.3     1  LIG1       0.1200000000000001
      7 O          -2.9881   -0.9320    0.5166 O.3     1  LIG1        -0.75
      8 O          -2.0628   -3.0483   -0.7230 O.3     1  LIG1      -0.7100000000000009
      9 O          -1.4645    0.2271    2.7860 O.3     1  LIG1      -0.7300000000000004
     10 O           0.9502   -2.8362   -1.0274 O.3     1  LIG1      -0.7699999999999996
     11 O          -2.7643    1.6813    1.1375 O.3     1  LIG1      -0.8100000000000005
     12 O          -1.8104    3.0999   -0.7947 O.2     1  LIG1        -0.75
     13 O          -1.4068    3.8220    1.6855 O.3     1  LIG1        -0.75
     14 O           3.0002   -1.8151   -2.1670 O.3     1  LIG1      -0.8000000000000007
     15 O           3.8936   -0.6361   -0.0355 O.3     1  LIG1      -0.7799999999999994
     16 O           3.8162    0.6330   -2.3223 O.2     1  LIG1      -0.7599999999999998
     17 O          -0.1804    1.7315    0.7932 O.3     1  LIG1      -0.6699999999999999
     18 O           1.6006    0.1090   -1.1053 O.3     1  LIG1      -0.6699999999999999
     19 P          -1.6257    2.7054    0.6662 P.3     1  LIG1       0.9700000000000006
     20 P           3.2427   -0.4560   -1.4137 P.3     1  LIG1       0.9600000000000009
     21 H          -2.2047   -2.1697    1.9532 H       1  LIG1       0.10999999999999999
     22 H          -0.5818   -3.2214    0.6902 H       1  LIG1          0.13
     23 H          -0.0187   -1.0163    2.1276 H       1  LIG1          0.13
     24 H          -0.3964   -1.3638   -1.6306 H       1  LIG1       0.08999999999999997
     25 H          -1.1278    0.3319   -0.3238 H       1  LIG1          0.12
     26 H           1.4827   -0.8241    0.7123 H       1  LIG1       0.09999999999999998
     27 H          -2.9222    0.0825    0.6226 H       1  LIG1       0.43000000000000005
     28 H          -2.7056   -2.3113   -0.7934 H       1  LIG1       0.41000000000000003
     29 H          -2.0430    0.9219    2.3164 H       1  LIG1       0.42000000000000004
     30 H           1.7851   -2.4341   -1.5060 H       1  LIG1       0.43000000000000005
@<TRIPOS>BOND
     1    16    20    2
     2    14    20    1
     3    24     4    1
     4    30    10    1
     5    20    18    1
     6    20    15    1
     7    18     6    1
     8    10     4    1
     9    12    19    2
    10    28     8    1
    11     8     2    1
    12     4     6    1
    13     4     2    1
    14    25     5    1
    15     6     5    1
    16     6    26    1
    17     2    22    1
    18     2     1    1
    19     5    17    1
    20     5     3    1
    21     7    27    1
    22     7     1    1
    23    19    17    1
    24    19    11    1
    25    19    13    1
    26     1     3    1
    27     1    21    1
    28     3    23    1
    29     3     9    1
    30    29     9    1
