@<TRIPOS>MOLECULE
MCWVPSBQQXUCTB-OQTIOYDCSA-N	6044857	-1208.5764082769902
 78 81 0 0 0
SMALL
MULLIKEN NwChem

@<TRIPOS>ATOM
      1 C           3.2346   -4.2875   -1.2433 C.3     1  LIG1             -0.5
      2 C           0.6311   -4.4510    0.7573 C.3     1  LIG1      -0.4800000000000004
      3 C           2.3070   -6.1340    1.6819 C.3     1  LIG1      -0.45999999999999996
      4 C           1.6149   -1.2016    4.3602 C.3     1  LIG1      -0.4800000000000004
      5 C          -0.5218    3.6522   -1.4590 C.3     1  LIG1      -0.4900000000000002
      6 C          -0.9401    0.4289    3.6478 C.3     1  LIG1      -0.4900000000000002
      7 C           3.6149   -3.6256    0.0554 C.2     1  LIG1      -0.1900000000000004
      8 C           3.2041   -1.4769    2.4575 C.3     1  LIG1      -0.2699999999999996
      9 C           3.6778   -2.9456    2.4223 C.3     1  LIG1      -0.34999999999999964
     10 C          -0.6687    1.3260   -3.3717 C.3     1  LIG1      -0.3099999999999996
     11 C          -0.3159    0.4151   -2.2340 C.2     1  LIG1      -0.20999999999999996
     12 C           1.1764   -0.3534    0.5005 C.3     1  LIG1      -0.3099999999999996
     13 C          -1.0896   -0.5974    1.3344 C.3     1  LIG1      -0.2999999999999998
     14 C          -3.9055    4.0172   -2.6037 C.3     1  LIG1      -0.28000000000000025
     15 C          -1.7380    2.1321    0.8813 C.3     1  LIG1      -0.3099999999999996
     16 C          -3.0700    3.6906   -1.3538 C.3     1  LIG1      -0.3099999999999996
     17 C          -0.4390    1.8440    1.6405 C.3     1  LIG1      -0.2999999999999998
     18 C          -2.0653    3.2886   -4.1530 C.3     1  LIG1      -0.3099999999999996
     19 C           1.8832   -4.6524    1.6309 C.3     1  LIG1      -0.1299999999999999
     20 C           1.7065   -1.2773    2.8254 C.3     1  LIG1      -0.08000000000000007
     21 C           3.0688   -3.7509    1.2758 C.2     1  LIG1      0.16999999999999993
     22 C          -1.8755    2.2166   -3.0554 C.3     1  LIG1      -0.09999999999999964
     23 C          -3.0029    4.4478   -3.7485 C.3     1  LIG1       0.16000000000000014
     24 C          -0.7732    0.5215   -0.9776 C.2     1  LIG1      0.16999999999999993
     25 C           1.1463   -0.0564    2.0432 C.3     1  LIG1      -0.09999999999999964
     26 C          -0.3061   -0.5465    0.0188 C.3     1  LIG1      -0.16999999999999993
     27 C          -1.7951    1.6062   -0.5977 C.3     1  LIG1      -0.16000000000000014
     28 C          -1.8001    2.7997   -1.6172 C.3     1  LIG1      0.09999999999999964
     29 C          -0.3409    0.3984    2.2374 C.3     1  LIG1      0.1200000000000001
     30 O          -3.8366    4.8718   -4.8293 O.3     1  LIG1      -0.6899999999999995
     31 H           2.6833   -5.2201   -1.1062 H       1  LIG1       0.17000000000000004
     32 H           4.1333   -4.5190   -1.8280 H       1  LIG1       0.15000000000000002
     33 H           2.6156   -3.6246   -1.8654 H       1  LIG1       0.16000000000000003
     34 H           0.7793   -4.7836   -0.2732 H       1  LIG1       0.15000000000000002
     35 H          -0.2094   -5.0225    1.1696 H       1  LIG1          0.14
     36 H           0.3386   -3.3966    0.7242 H       1  LIG1       0.17000000000000004
     37 H           3.1454   -6.2773    2.3729 H       1  LIG1       0.15000000000000002
     38 H           1.4754   -6.7654    2.0186 H       1  LIG1          0.14
     39 H           2.6258   -6.4917    0.6975 H       1  LIG1       0.15000000000000002
     40 H           1.9622   -0.2257    4.7226 H       1  LIG1          0.14
     41 H           0.6078   -1.3645    4.7455 H       1  LIG1       0.15000000000000002
     42 H           2.2593   -1.9654    4.8128 H       1  LIG1          0.14
     43 H          -0.4882    4.4539   -2.2049 H       1  LIG1       0.15000000000000002
     44 H          -0.4822    4.1294   -0.4743 H       1  LIG1       0.15000000000000002
     45 H           0.3827    3.0465   -1.5686 H       1  LIG1       0.15000000000000002
     46 H          -0.2963    0.9603    4.3569 H       1  LIG1          0.14
     47 H          -1.9053    0.9509    3.6221 H       1  LIG1          0.14
     48 H          -1.1307   -0.5743    4.0396 H       1  LIG1       0.15000000000000002
     49 H           4.4595   -2.9385   -0.0310 H       1  LIG1          0.13
     50 H           3.8141   -0.9193    3.1828 H       1  LIG1          0.13
     51 H           3.4311   -1.0396    1.4800 H       1  LIG1          0.14
     52 H           3.4558   -3.4319    3.3820 H       1  LIG1          0.14
     53 H           4.7709   -2.9454    2.3277 H       1  LIG1          0.14
     54 H          -0.8790    0.7351   -4.2752 H       1  LIG1          0.14
     55 H           0.2035    1.9475   -3.6329 H       1  LIG1          0.14
     56 H           0.3747   -0.3972   -2.4671 H       1  LIG1          0.12
     57 H           1.7484   -1.2609    0.2884 H       1  LIG1       0.15000000000000002
     58 H           1.6551    0.4527   -0.0625 H       1  LIG1          0.14
     59 H          -2.1571   -0.3831    1.2246 H       1  LIG1          0.14
     60 H          -1.0194   -1.6010    1.7739 H       1  LIG1          0.14
     61 H          -4.6213    4.8167   -2.3820 H       1  LIG1          0.14
     62 H          -4.4934    3.1489   -2.9271 H       1  LIG1          0.14
     63 H          -2.5868    1.7319    1.4489 H       1  LIG1          0.14
     64 H          -1.8970    3.2139    0.8738 H       1  LIG1       0.15000000000000002
     65 H          -3.7248    3.2063   -0.6206 H       1  LIG1          0.14
     66 H          -2.7558    4.6360   -0.8936 H       1  LIG1          0.14
     67 H          -0.3279    2.5589    2.4662 H       1  LIG1          0.13
     68 H           0.4001    2.0434    0.9658 H       1  LIG1       0.15000000000000002
     69 H          -2.5014    2.8028   -5.0354 H       1  LIG1          0.14
     70 H          -1.0888    3.6857   -4.4613 H       1  LIG1          0.14
     71 H           1.5840   -4.3837    2.6530 H       1  LIG1          0.14
     72 H           1.1472   -2.1618    2.4975 H       1  LIG1          0.14
     73 H          -2.7621    1.5665   -3.0718 H       1  LIG1          0.13
     74 H          -2.3971    5.3015   -3.3971 H       1  LIG1          0.12
     75 H           1.8031    0.7925    2.2846 H       1  LIG1       0.10999999999999999
     76 H          -0.3828   -1.5083   -0.5003 H       1  LIG1          0.14
     77 H          -2.7800    1.1256   -0.7120 H       1  LIG1          0.14
     78 H          -3.2570    5.1095   -5.5700 H       1  LIG1       0.42000000000000004
@<TRIPOS>BOND
     1    78    30    1
     2    69    18    1
     3    30    23    1
     4    70    18    1
     5    54    10    1
     6    18    23    1
     7    18    22    1
     8    23    74    1
     9    23    14    1
    10    55    10    1
    11    10    22    1
    12    10    11    1
    13    73    22    1
    14    22    28    1
    15    62    14    1
    16    14    61    1
    17    14    16    1
    18    56    11    1
    19    11    24    2
    20    43     5    1
    21    33     1    1
    22    32     1    1
    23    28     5    1
    24    28    16    1
    25    28    27    1
    26    45     5    1
    27     5    44    1
    28    16    66    1
    29    16    65    1
    30     1    31    1
    31     1     7    1
    32    24    27    1
    33    24    26    1
    34    77    27    1
    35    27    15    1
    36    76    26    1
    37    34     2    1
    38    58    12    1
    39    49     7    1
    40    26    12    1
    41    26    13    1
    42     7    21    2
    43    57    12    1
    44    12    25    1
    45    39     3    1
    46    36     2    1
    47     2    35    1
    48     2    19    1
    49    64    15    1
    50    15    63    1
    51    15    17    1
    52    68    17    1
    53    59    13    1
    54    21    19    1
    55    21     9    1
    56    13    60    1
    57    13    29    1
    58    51     8    1
    59    19     3    1
    60    19    71    1
    61    17    29    1
    62    17    67    1
    63     3    38    1
    64     3    37    1
    65    25    29    1
    66    25    75    1
    67    25    20    1
    68    29     6    1
    69    53     9    1
    70     9     8    1
    71     9    52    1
    72     8    20    1
    73     8    50    1
    74    72    20    1
    75    20     4    1
    76    47     6    1
    77     6    48    1
    78     6    46    1
    79     4    40    1
    80     4    41    1
    81     4    42    1
