@<TRIPOS>MOLECULE
MEYMBLGOKYDGLZ-UHFFFAOYSA-O	6044860	-621.475865813398
 23 24 0 0 0
SMALL
MULLIKEN NwChem

@<TRIPOS>ATOM
      1 C           1.0249    1.2580   -2.3955 C.3     1  LIG1      -0.2599999999999998
      2 C           1.4460   -1.1587   -1.6732 C.2     1  LIG1          0.0
      3 C           0.8794    0.0798   -1.5035 C.2     1  LIG1      0.04999999999999982
      4 C           0.0496    0.0029   -0.3297 C.2     1  LIG1       0.009999999999999787
      5 C           0.1502   -1.2998    0.1576 C.3     1  LIG1       0.6399999999999997
      6 C          -0.7497    0.8735    0.4618 C.2     1  LIG1       0.5199999999999996
      7 C          -1.3509   -0.7949    1.9839 C.cat   1  LIG1       0.6200000000000001
      8 N           1.4437    2.4820   -1.5676 N.4     1  LIG1       -0.7300000000000004
      9 N          -1.9749   -1.2762    2.9809 N.pl3   1  LIG1        -0.75
     10 N           0.9895   -1.9976   -0.6578 N.pl3   1  LIG1      -0.6699999999999999
     11 N          -0.5004   -1.6982    1.2695 N.pl3   1  LIG1      -0.7199999999999998
     12 N          -1.3942    0.5293    1.5229 N.2     1  LIG1      -0.5999999999999996
     13 O          -0.7996    2.1864    0.0599 O.2     1  LIG1      -0.6600000000000001
     14 H           0.0830    1.5555   -2.8670 H       1  LIG1       0.22999999999999998
     15 H           1.7822    1.1114   -3.1679 H       1  LIG1          0.24
     16 H           2.1047   -1.5347   -2.4419 H       1  LIG1       0.20999999999999996
     17 H           1.5593    3.3221   -2.1457 H       1  LIG1      0.43999999999999995
     18 H           0.6979    2.6585   -0.8571 H       1  LIG1      0.44999999999999996
     19 H           2.3241    2.3026   -1.0718 H       1  LIG1      0.43999999999999995
     20 H          -2.5416   -0.5553    3.4267 H       1  LIG1       0.31000000000000005
     21 H           1.2405   -2.9715   -0.5573 H       1  LIG1           0.4
     22 H          -0.4669   -2.6424    1.6345 H       1  LIG1          0.38
     23 H          -1.3722    2.6577    0.6976 H       1  LIG1       0.45999999999999996
@<TRIPOS>BOND
     1    15     1    1
     2    14     1    1
     3    16     2    1
     4     1     8    1
     5     1     3    1
     6    17     8    1
     7     2     3    2
     8     2    10    1
     9     8    19    1
    10     8    18    1
    11     3     4    1
    12    10    21    1
    13    10     5    1
    14     4     5    1
    15     4     6    2
    16    13     6    1
    17    13    23    1
    18     5    11    1
    19     6    12    1
    20    11    22    1
    21    11     7    1
    22    12     7    2
    23     7     9    1
    24     9    20    1
