@<TRIPOS>MOLECULE
MFPDJTXHKIFPNP-UHFFFAOYSA-N	6044861	-441.31207677229725
 21 21 0 0 0
SMALL
MULLIKEN NwChem

@<TRIPOS>ATOM
      1 C           0.2709    2.2130   -0.0640 C.3     1  LIG1      -0.5300000000000002
      2 C          -1.2191   -1.3612    1.7206 C.ar    1  LIG1      -0.16000000000000014
      3 C          -0.1019   -1.4594    0.8955 C.ar    1  LIG1      -0.16000000000000014
      4 C           1.5964   -0.4377   -0.6643 C.3     1  LIG1      -0.3600000000000003
      5 C          -1.7834   -0.0994    1.9003 C.ar    1  LIG1       0.019999999999999574
      6 C           1.1478   -0.8131   -2.0906 C.3     1  LIG1       -0.040000000000000036
      7 C          -0.2260    0.9153    0.5326 C.ar    1  LIG1          0.25
      8 C           0.4210   -0.3166    0.2814 C.ar    1  LIG1      0.09999999999999964
      9 N          -1.3060    1.0105    1.3279 N.ar    1  LIG1      -0.5099999999999998
     10 O           0.2636    0.1373   -2.6688 O.3     1  LIG1      -0.6600000000000001
     11 H          -0.4369    3.0097    0.1731 H       1  LIG1       0.16000000000000003
     12 H           0.3894    2.1369   -1.1492 H       1  LIG1       0.17000000000000004
     13 H           1.2501    2.4872    0.3509 H       1  LIG1       0.18000000000000005
     14 H          -1.6395   -2.2341    2.2110 H       1  LIG1       0.16000000000000003
     15 H           0.3740   -2.4235    0.7261 H       1  LIG1       0.17000000000000004
     16 H           2.1641    0.4965   -0.7072 H       1  LIG1       0.17000000000000004
     17 H           2.2827   -1.2167   -0.3064 H       1  LIG1       0.16000000000000003
     18 H          -2.6593    0.0305    2.5343 H       1  LIG1       0.16000000000000003
     19 H           2.0178   -0.8535   -2.7539 H       1  LIG1       0.16000000000000003
     20 H           0.6929   -1.8175   -2.0754 H       1  LIG1          0.14
     21 H          -0.5485    0.1377   -2.1364 H       1  LIG1       0.42000000000000004
@<TRIPOS>BOND
     1    19     6    1
     2    10    21    1
     3    10     6    1
     4     6    20    1
     5     6     4    1
     6    12     1    1
     7    16     4    1
     8     4    17    1
     9     4     8    1
    10     1    11    1
    11     1    13    1
    12     1     7    1
    13     8     7   ar
    14     8     3   ar
    15     7     9   ar
    16    15     3    1
    17     3     2   ar
    18     9     5   ar
    19     2     5   ar
    20     2    14    1
    21     5    18    1
