@<TRIPOS>MOLECULE
MFYSYFVPBJMHGN-ZPOLXVRWSA-N	6044862	-1192.836037980282
 54 57 0 0 0
SMALL
MULLIKEN NwChem

@<TRIPOS>ATOM
      1 C           0.3131    0.3717    2.8158 C.3     1  LIG1      -0.4900000000000002
      2 C          -0.1203    0.1578   -3.6919 C.3     1  LIG1      -0.5199999999999996
      3 C           1.3324   -2.4466    1.7744 C.3     1  LIG1      -0.3600000000000003
      4 C           0.9344   -2.3956    0.2959 C.3     1  LIG1      -0.28000000000000025
      5 C           3.3784    1.1343    3.3102 C.3     1  LIG1       -0.3700000000000001
      6 C          -1.4780   -2.0765   -1.7439 C.3     1  LIG1      -0.2999999999999998
      7 C           2.5720    1.2479    2.0135 C.3     1  LIG1      -0.2999999999999998
      8 C          -2.5538   -1.2622   -2.4872 C.3     1  LIG1      -0.33000000000000007
      9 C           3.2714   -1.3561    2.8691 C.2     1  LIG1      -0.29000000000000004
     10 C          -0.0033    1.4743   -1.5845 C.3     1  LIG1       -0.40000000000000036
     11 C          -4.2816    1.1673   -0.9666 C.3     1  LIG1       -0.1200000000000001
     12 C           2.1163   -1.2255    2.1853 C.2     1  LIG1      0.20000000000000018
     13 C           4.0304   -0.2303    3.4426 C.2     1  LIG1       0.45999999999999996
     14 C           0.1749   -1.1040   -0.0411 C.3     1  LIG1      -0.1200000000000001
     15 C          -0.2392   -1.1405   -1.5339 C.3     1  LIG1      -0.09999999999999964
     16 C           0.3413    1.4198   -0.1057 C.2     1  LIG1       0.5099999999999998
     17 C          -2.8377    0.6560   -0.9185 C.2     1  LIG1       0.4400000000000004
     18 C           1.0303    0.1280    0.3477 C.3     1  LIG1       -0.21999999999999975
     19 C           1.5030    0.1359    1.8452 C.3     1  LIG1      0.040000000000000036
     20 C          -0.6152    0.2095   -2.2251 C.3     1  LIG1       0.11000000000000032
     21 C          -2.1823    0.2219   -2.2421 C.3     1  LIG1       0.20999999999999996
     22 O          -5.0932    0.5970   -1.9731 O.3     1  LIG1      -0.6600000000000001
     23 O           5.0898   -0.4025    4.0310 O.2     1  LIG1      -0.5600000000000005
     24 O           0.1703    2.4003    0.5942 O.2     1  LIG1      -0.5299999999999994
     25 O          -2.2536    0.5845    0.1458 O.2     1  LIG1      -0.4900000000000002
     26 O          -2.7282    1.1171   -3.2254 O.3     1  LIG1      -0.6999999999999993
     27 H          -0.1130    1.3622    2.6568 H       1  LIG1       0.16000000000000003
     28 H           0.6501    0.2875    3.8541 H       1  LIG1       0.16000000000000003
     29 H          -0.4835   -0.3630    2.6687 H       1  LIG1       0.16000000000000003
     30 H          -0.5301   -0.6924   -4.2499 H       1  LIG1       0.17000000000000004
     31 H          -0.3637    1.0825   -4.2273 H       1  LIG1       0.16000000000000003
     32 H           0.9692    0.0525   -3.7060 H       1  LIG1       0.17000000000000004
     33 H           1.9039   -3.3551    1.9935 H       1  LIG1       0.16000000000000003
     34 H           0.4168   -2.4975    2.3823 H       1  LIG1       0.18000000000000005
     35 H           0.3201   -3.2698    0.0453 H       1  LIG1       0.15000000000000002
     36 H           1.8402   -2.4559   -0.3252 H       1  LIG1          0.14
     37 H           4.1555    1.9024    3.3724 H       1  LIG1       0.16000000000000003
     38 H           2.7258    1.2728    4.1844 H       1  LIG1       0.18999999999999995
     39 H          -1.2211   -2.9875   -2.2923 H       1  LIG1       0.16000000000000003
     40 H          -1.8632   -2.3973   -0.7707 H       1  LIG1       0.16000000000000003
     41 H           3.2739    1.1808    1.1698 H       1  LIG1       0.15000000000000002
     42 H           2.0883    2.2234    1.9478 H       1  LIG1       0.16000000000000003
     43 H          -3.5763   -1.4837   -2.1709 H       1  LIG1       0.17000000000000004
     44 H          -2.5153   -1.4443   -3.5694 H       1  LIG1       0.18000000000000005
     45 H           3.6789   -2.3420    3.0847 H       1  LIG1          0.14
     46 H          -0.6443    2.3444   -1.7558 H       1  LIG1       0.17000000000000004
     47 H           0.9522    1.6946   -2.0839 H       1  LIG1       0.18999999999999995
     48 H          -4.7352    0.9413    0.0019 H       1  LIG1       0.18999999999999995
     49 H          -4.2184    2.2666   -1.0518 H       1  LIG1       0.18000000000000005
     50 H          -0.7336   -1.0702    0.5637 H       1  LIG1       0.16000000000000003
     51 H           0.6226   -1.5477   -2.0774 H       1  LIG1          0.14
     52 H           1.9428    0.0714   -0.2733 H       1  LIG1       0.17000000000000004
     53 H          -4.6713    0.8499   -2.8130 H       1  LIG1       0.43000000000000005
     54 H          -2.5086    0.7679   -4.1033 H       1  LIG1       0.44999999999999996
@<TRIPOS>BOND
     1    30     2    1
     2    31     2    1
     3    54    26    1
     4    32     2    1
     5     2    20    1
     6    44     8    1
     7    26    21    1
     8    53    22    1
     9     8    21    1
    10     8    43    1
    11     8     6    1
    12    39     6    1
    13    21    20    1
    14    21    17    1
    15    20    10    1
    16    20    15    1
    17    47    10    1
    18    51    15    1
    19    22    11    1
    20    46    10    1
    21     6    15    1
    22     6    40    1
    23    10    16    1
    24    15    14    1
    25    49    11    1
    26    11    17    1
    27    11    48    1
    28    17    25    2
    29    36     4    1
    30    52    18    1
    31    16    18    1
    32    16    24    2
    33    14     4    1
    34    14    18    1
    35    14    50    1
    36    35     4    1
    37     4     3    1
    38    18    19    1
    39    41     7    1
    40     3    33    1
    41     3    12    1
    42     3    34    1
    43    19     7    1
    44    19    12    1
    45    19     1    1
    46    42     7    1
    47     7     5    1
    48    12     9    2
    49    27     1    1
    50    29     1    1
    51     1    28    1
    52     9    45    1
    53     9    13    1
    54     5    37    1
    55     5    13    1
    56     5    38    1
    57    13    23    2
