@<TRIPOS>MOLECULE
MGSQNPUEAQIQMC-YUMQZZPRSA-M	6044864	-2705.0065253619405
 48 48 0 0 0
SMALL
MULLIKEN NwChem

@<TRIPOS>ATOM
      1 C          -0.3837   -2.2605   -1.5500 C.3     1  UNK1      -0.2699999999999996
      2 C          -1.0653   -2.4979   -0.1884 C.3     1  UNK1      -0.3600000000000003
      3 C           3.0736    0.3574   -0.2682 C.2     1  UNK1       -0.2400000000000002
      4 CA         -3.5678   -2.1138    3.4043 C.3     2  GLY2       -0.2599999999999998
      5 C          -1.5986    1.1643    1.2200 C.3     1  UNK1       -0.4299999999999997
      6 C           3.0512    1.0926   -1.4321 C.2     1  UNK1       -0.1200000000000001
      7 C          -0.2913   -0.7850   -1.9445 C.3     1  UNK1       -0.08000000000000007
      8 C          -1.8779   -0.1883    1.9129 C.3     1  UNK1       -0.04999999999999982
      9 C           2.1308    0.5588    0.8006 C.2     1  UNK1       0.4400000000000004
     10 C          -0.3247   -1.8477    0.9704 C.3     1  UNK1       0.5199999999999996
     11 C          -2.3282   -2.9845    3.6011 C.2     2  GLY2       0.5999999999999996
     12 C           1.1640    2.3070   -0.6518 C.2     1  UNK1       -0.1299999999999999
     13 C           2.0961    2.0946   -1.6703 C.2     1  UNK1       0.34999999999999964
     14 C           1.1349    1.5924    0.5643 C.3     1  UNK1       -0.21999999999999975
     15 C          -3.1898   -0.8290    1.4587 C.2     1  UNK1       0.5300000000000002
     16 C           0.6270   -0.6014   -3.1441 C.2     1  UNK1       0.6299999999999999
     17 CL          4.2336    0.7538   -2.7052 Cl      1  UNK1      -0.05999999999999872
     18 CL         -0.1038    3.5113   -1.0305 Cl      1  UNK1      -0.05000000000000071
     19 N          -1.6151   -0.2111   -2.2393 N.3     1  UNK1      -0.8200000000000003
     20 N          -3.9102   -1.6937    2.0572 N.2     2  GLY2      -0.4900000000000002
     21 N          -0.7018   -1.0222    1.8700 N.3     1  UNK1         -0.5
     22 O           2.1899   -0.1612    1.8520 O.2     1  UNK1      -0.7400000000000002
     23 O           0.9422   -2.2870    1.0250 O.3     1  UNK1      -0.6699999999999999
     24 OXT        -1.6960   -3.0057    4.6320 O.2     2  GLY2      -0.5099999999999998
     25 O          -2.0594   -3.7902    2.5485 O.3     2  GLY2      -0.5700000000000003
     26 O           2.1017    2.7628   -2.8744 O.2     1  UNK1      -0.6799999999999997
     27 O          -3.6128   -0.4228    0.2253 O.2     1  UNK1      -0.6099999999999994
     28 O           1.4578   -1.3894   -3.5384 O.2     1  UNK1      -0.5299999999999994
     29 O           0.4610    0.6238   -3.7132 O.3     1  UNK1      -0.5999999999999996
     30 S          -0.0596    1.9940    1.8284 S.3     1  UNK1      0.02999999999999936
     31 H          -0.9348   -2.7976   -2.3321 H       1  UNK1       0.15000000000000002
     32 H           0.6301   -2.6643   -1.5156 H       1  UNK1       0.16000000000000003
     33 H          -2.1098   -2.1924   -0.2093 H       1  UNK1       0.17000000000000004
     34 H          -1.0683   -3.5755    0.0150 H       1  UNK1       0.18000000000000005
     35 H           3.8132   -0.4216   -0.1276 H       1  UNK1       0.15000000000000002
     36 HA1        -3.4355   -1.2725    4.0959 H       2  GLY2       0.19999999999999996
     37 HA2        -4.4086   -2.7052    3.7909 H       2  GLY2       0.20999999999999996
     38 H          -1.5023    1.0333    0.1415 H       1  UNK1       0.18999999999999995
     39 H          -2.4337    1.8517    1.3970 H       1  UNK1       0.18999999999999995
     40 H           0.2367   -0.2509   -1.1334 H       1  UNK1       0.18999999999999995
     41 H          -2.0318    0.0367    2.9792 H       1  UNK1       0.18000000000000005
     42 H          -1.5018    0.7851   -2.4182 H       1  UNK1       0.32999999999999996
     43 H          -2.2060   -0.2842   -1.4140 H       1  UNK1          0.36
     44 H           1.4780   -1.5592    1.5126 H       1  UNK1       0.43999999999999995
     45 H          -1.2010   -4.2088    2.7495 H       2  GLY2       0.44999999999999996
     46 H           1.2194    3.1543   -2.9814 H       1  UNK1       0.43999999999999995
     47 H          -4.4175   -0.9463    0.0464 H       1  UNK1       0.43999999999999995
     48 H           1.2463    0.7802   -4.2700 H       1  UNK1       0.43999999999999995
@<TRIPOS>BOND
     1    48    29    1
     2    29    16    1
     3    28    16    2
     4    16     7    1
     5    46    26    1
     6    26    13    1
     7    17     6    1
     8    42    19    1
     9    31     1    1
    10    19     7    1
    11    19    43    1
    12     7     1    1
    13     7    40    1
    14    13     6    1
    15    13    12    2
    16     1    32    1
    17     1     2    1
    18     6     3    2
    19    18    12    1
    20    12    14    1
    21     3    35    1
    22     3     9    1
    23    33     2    1
    24     2    34    1
    25     2    10    1
    26    47    27    1
    27    38     5    1
    28    27    15    1
    29    14     9    1
    30    14    30    1
    31     9    22    2
    32    10    23    1
    33    10    21    1
    34    23    44    1
    35     5    39    1
    36     5    30    1
    37     5     8    1
    38    15     8    1
    39    15    20    2
    40    21     8    1
    41     8    41    1
    42    20     4    1
    43    25    45    1
    44    25    11    1
    45     4    11    1
    46     4    37    1
    47     4    36    1
    48    11    24    2
