@<TRIPOS>MOLECULE
MHAJPDPJQMAIIY-UHFFFAOYSA-N	6044865	-151.53549249116364
 4 3 0 0 0
SMALL
MULLIKEN NwChem

@<TRIPOS>ATOM
      1 O           0.2002   -0.1485   -0.6900 O.3     1  LIG1      -0.46000000000000085
      2 O          -0.2002    0.1485    0.6900 O.3     1  LIG1      -0.46000000000000085
      3 H           1.1640   -0.1210   -0.5624 H       1  LIG1       0.45999999999999996
      4 H          -1.1640    0.1210    0.5624 H       1  LIG1       0.45999999999999996
@<TRIPOS>BOND
     1     1     3    1
     2     1     2    1
     3     4     2    1
