@<TRIPOS>MOLECULE
MHYWFGFPMGLYBL-NUESBDPTSA-N	6044868	-1244.4606661030523
 76 79 0 0 0
SMALL
MULLIKEN NwChem

@<TRIPOS>ATOM
      1 C          -1.5199    5.2365   -3.1456 C.3     1  LIG1      -0.45999999999999996
      2 C          -2.0687    6.1488   -0.8558 C.3     1  LIG1      -0.45999999999999996
      3 C          -4.3608    1.4642    0.6005 C.3     1  LIG1      -0.4800000000000004
      4 C          -0.7792    1.3525    0.5221 C.3     1  LIG1         -0.5
      5 C           1.2547   -3.9154    1.6338 C.3     1  LIG1      -0.4900000000000002
      6 C          -4.1242    3.3717   -2.7525 C.3     1  LIG1      -0.28000000000000025
      7 C          -3.7633    4.7033   -2.0495 C.3     1  LIG1      -0.2599999999999998
      8 C          -4.5488    2.2436   -1.7893 C.3     1  LIG1      -0.2699999999999996
      9 C           1.7055   -1.6404   -1.3538 C.3     1  LIG1      -0.34999999999999964
     10 C           2.7730   -2.5395   -0.7194 C.3     1  LIG1      -0.2999999999999998
     11 C          -1.7735    1.0625   -2.3867 C.3     1  LIG1      -0.3099999999999996
     12 C          -0.4095    0.3280   -2.2729 C.3     1  LIG1      -0.29000000000000004
     13 C          -0.7392   -1.3806    1.7126 C.3     1  LIG1      -0.3600000000000003
     14 C           3.1347   -2.4333    3.6618 C.3     1  LIG1      -0.29000000000000004
     15 C          -1.9667   -0.8395    0.9502 C.3     1  LIG1      -0.29000000000000004
     16 C           1.8736   -1.8658    2.9918 C.3     1  LIG1      -0.3099999999999996
     17 C           4.3402   -4.2089    1.3665 C.3     1  LIG1       0.11000000000000032
     18 C          -2.2586    4.9752   -1.8261 C.3     1  LIG1      -0.08000000000000007
     19 C          -3.5610    1.8298   -0.6613 C.3     1  LIG1      -0.08000000000000007
     20 C           0.5417   -1.3220   -0.4394 C.2     1  LIG1      0.08999999999999986
     21 C           4.2571   -2.7070    1.3937 C.3     1  LIG1       -0.23000000000000043
     22 C          -2.6151    0.6936   -1.1158 C.3     1  LIG1      -0.08999999999999986
     23 C          -0.6345   -0.6354   -1.0982 C.3     1  LIG1      -0.16999999999999993
     24 C           2.9446   -2.1557    0.7504 C.3     1  LIG1      -0.13999999999999968
     25 C           0.4874   -1.6702    0.8612 C.2     1  LIG1      0.08999999999999986
     26 C           4.4043   -2.1741    2.8441 C.3     1  LIG1       0.1299999999999999
     27 C          -1.5329    0.1686   -0.1240 C.3     1  LIG1      0.08999999999999986
     28 C           1.6395   -2.4148    1.5576 C.3     1  LIG1      0.05999999999999961
     29 O           5.0631   -4.6352    0.3637 O.3     1  LIG1         -0.5
     30 O           4.7700   -0.7937    2.8285 O.3     1  LIG1      -0.6799999999999997
     31 H          -1.9215    6.1284   -3.6463 H       1  LIG1          0.14
     32 H          -1.6098    4.3945   -3.8417 H       1  LIG1       0.15000000000000002
     33 H          -0.4513    5.4068   -2.9689 H       1  LIG1          0.14
     34 H          -2.5291    7.0628   -1.2531 H       1  LIG1          0.14
     35 H          -2.5329    5.9370    0.1152 H       1  LIG1          0.14
     36 H          -1.0066    6.3577   -0.6839 H       1  LIG1          0.14
     37 H          -4.9520    0.5522    0.4496 H       1  LIG1          0.14
     38 H          -3.7141    1.3037    1.4675 H       1  LIG1       0.16000000000000003
     39 H          -5.0561    2.2722    0.8577 H       1  LIG1          0.14
     40 H          -1.3860    1.8079    1.3122 H       1  LIG1       0.15000000000000002
     41 H           0.1677    1.0325    0.9651 H       1  LIG1       0.15000000000000002
     42 H          -0.5477    2.1391   -0.2036 H       1  LIG1       0.16000000000000003
     43 H           0.9413   -4.2901    0.6543 H       1  LIG1       0.15000000000000002
     44 H           2.0898   -4.5327    1.9753 H       1  LIG1       0.15000000000000002
     45 H           0.4120   -4.0539    2.3198 H       1  LIG1       0.15000000000000002
     46 H          -4.9695    3.5440   -3.4316 H       1  LIG1          0.13
     47 H          -3.3005    3.0478   -3.3959 H       1  LIG1       0.15000000000000002
     48 H          -4.2789    4.7391   -1.0798 H       1  LIG1          0.13
     49 H          -4.1662    5.5477   -2.6269 H       1  LIG1          0.13
     50 H          -5.4841    2.5739   -1.3167 H       1  LIG1          0.13
     51 H          -4.8155    1.3513   -2.3740 H       1  LIG1          0.13
     52 H           1.3215   -2.0978   -2.2764 H       1  LIG1       0.15000000000000002
     53 H           2.1668   -0.6942   -1.6740 H       1  LIG1       0.15000000000000002
     54 H           3.7231   -2.4273   -1.2598 H       1  LIG1          0.14
     55 H           2.4933   -3.5950   -0.8032 H       1  LIG1       0.15000000000000002
     56 H          -1.6119    2.1410   -2.4387 H       1  LIG1       0.15000000000000002
     57 H          -2.3112    0.7883   -3.2999 H       1  LIG1          0.14
     58 H           0.3958    1.0371   -2.0481 H       1  LIG1          0.14
     59 H          -0.1304   -0.1877   -3.1969 H       1  LIG1          0.14
     60 H          -1.0297   -2.2903    2.2544 H       1  LIG1       0.15000000000000002
     61 H          -0.4647   -0.6596    2.4942 H       1  LIG1       0.15000000000000002
     62 H           3.2656   -1.9824    4.6521 H       1  LIG1          0.14
     63 H           3.0301   -3.5140    3.8037 H       1  LIG1       0.15000000000000002
     64 H          -2.6644   -0.4106    1.6744 H       1  LIG1          0.13
     65 H          -2.4944   -1.6677    0.4593 H       1  LIG1          0.13
     66 H           1.0079   -2.0811    3.6270 H       1  LIG1       0.15000000000000002
     67 H           1.9422   -0.7671    2.9440 H       1  LIG1          0.14
     68 H           5.4425   -3.9034   -0.1988 H       1  LIG1       0.43000000000000005
     69 H          -1.8057    4.0882   -1.3631 H       1  LIG1       0.15000000000000002
     70 H          -2.9483    2.7006   -0.4048 H       1  LIG1          0.14
     71 H           5.0920   -2.2662    0.8036 H       1  LIG1          0.13
     72 H          -3.2559   -0.1663   -1.3681 H       1  LIG1       0.10999999999999999
     73 H          -1.2740   -1.4399   -1.5030 H       1  LIG1          0.13
     74 H           3.0872   -1.0626    0.7627 H       1  LIG1          0.14
     75 H           5.2541   -2.6718    3.3226 H       1  LIG1          0.14
     76 H           4.0032   -0.2810    2.5311 H       1  LIG1       0.43000000000000005
@<TRIPOS>BOND
     1    32     1    1
     2    31     1    1
     3    46     6    1
     4    47     6    1
     5    57    11    1
     6    59    12    1
     7     1    33    1
     8     1    18    1
     9     6     7    1
    10     6     8    1
    11    49     7    1
    12    56    11    1
    13    11    12    1
    14    11    22    1
    15    51     8    1
    16    52     9    1
    17    12    58    1
    18    12    23    1
    19     7    18    1
    20     7    48    1
    21    18    69    1
    22    18     2    1
    23     8    50    1
    24     8    19    1
    25    53     9    1
    26    73    23    1
    27    72    22    1
    28     9    10    1
    29     9    20    1
    30    54    10    1
    31    34     2    1
    32    22    19    1
    33    22    27    1
    34    23    20    1
    35    23    27    1
    36     2    36    1
    37     2    35    1
    38    55    10    1
    39    10    24    1
    40    19    70    1
    41    19     3    1
    42    20    25    2
    43    42     4    1
    44    68    29    1
    45    27     4    1
    46    27    15    1
    47    29    17    1
    48    37     3    1
    49    65    15    1
    50     4    41    1
    51     4    40    1
    52     3    39    1
    53     3    38    1
    54    43     5    1
    55    24    74    1
    56    24    21    1
    57    24    28    1
    58    71    21    1
    59    25    28    1
    60    25    13    1
    61    15    64    1
    62    15    13    1
    63    17    21    1
    64    21    26    1
    65    28     5    1
    66    28    16    1
    67     5    44    1
    68     5    45    1
    69    13    60    1
    70    13    61    1
    71    76    30    1
    72    30    26    1
    73    26    75    1
    74    26    14    1
    75    67    16    1
    76    16    66    1
    77    16    14    1
    78    14    63    1
    79    14    62    1
