@<TRIPOS>MOLECULE
MJGXIOUQXYXGLP-UHFFFAOYSA-M	6044869	-1015.1041070808474
 31 30 0 0 0
SMALL
MULLIKEN NwChem

@<TRIPOS>ATOM
      1 C          -1.2975   -3.0986   -2.6940 C.3     1  LIG1      -0.5999999999999996
      2 C          -0.2286   -0.5616   -0.2786 C.3     1  LIG1      -0.28000000000000025
      3 C           0.5231    0.7796   -0.3194 C.3     1  LIG1      -0.28000000000000025
      4 C          -1.7607   -0.4576   -0.3781 C.3     1  LIG1      -0.2699999999999996
      5 C           0.1140    1.7944    0.7618 C.3     1  LIG1      -0.2599999999999998
      6 C          -2.2898    0.2800   -1.6171 C.3     1  LIG1        -0.25
      7 C           0.1615    1.2267    2.1971 C.3     1  LIG1       -0.3600000000000003
      8 C          -1.8793   -0.3103   -2.9720 C.3     1  LIG1      -0.41999999999999993
      9 C           1.5007    0.5431    2.5029 C.2     1  LIG1       0.3899999999999997
     10 C           2.7185    1.4856    2.5105 C.2     1  LIG1       0.4800000000000004
     11 O           1.5448   -0.6730    2.6743 O.2     1  LIG1      -0.5399999999999991
     12 O           3.1941    1.6832    1.3603 O.co2   1  LIG1      -0.6300000000000008
     13 O           3.0239    1.9644    3.6235 O.co2   1  LIG1      -0.6500000000000004
     14 S          -2.5730   -1.9746   -3.3738 S.3     1  LIG1          0.0
     15 H          -1.5608   -4.1086   -3.0226 H       1  LIG1       0.18999999999999995
     16 H          -1.2654   -3.0751   -1.6029 H       1  LIG1       0.19999999999999996
     17 H          -0.3088   -2.8466   -3.0897 H       1  LIG1       0.18999999999999995
     18 H           0.0309   -1.0774    0.6533 H       1  LIG1          0.13
     19 H           0.1520   -1.1983   -1.0898 H       1  LIG1          0.14
     20 H           1.5957    0.5984   -0.1869 H       1  LIG1          0.14
     21 H           0.4048    1.2484   -1.3088 H       1  LIG1          0.13
     22 H          -2.1408    0.0630    0.5105 H       1  LIG1          0.14
     23 H          -2.2049   -1.4623   -0.3463 H       1  LIG1          0.14
     24 H           0.8119    2.6355    0.7010 H       1  LIG1          0.14
     25 H          -0.8963    2.1869    0.5676 H       1  LIG1       0.15000000000000002
     26 H          -1.9343    1.3199   -1.5964 H       1  LIG1       0.15000000000000002
     27 H          -3.3862    0.3245   -1.5748 H       1  LIG1          0.14
     28 H           0.0259    2.0503    2.9112 H       1  LIG1       0.16000000000000003
     29 H          -0.6370    0.4923    2.3631 H       1  LIG1       0.15000000000000002
     30 H          -0.7897   -0.3664   -3.0699 H       1  LIG1       0.18999999999999995
     31 H          -2.2386    0.3362   -3.7808 H       1  LIG1       0.18000000000000005
@<TRIPOS>BOND
     1    31     8    1
     2    14     8    1
     3    14     1    1
     4    17     1    1
     5    30     8    1
     6    15     1    1
     7     8     6    1
     8     1    16    1
     9     6    26    1
    10     6    27    1
    11     6     4    1
    12    21     3    1
    13    19     2    1
    14     4    23    1
    15     4     2    1
    16     4    22    1
    17     3     2    1
    18     3    20    1
    19     3     5    1
    20     2    18    1
    21    25     5    1
    22    24     5    1
    23     5     7    1
    24    12    10   ar
    25     7    29    1
    26     7     9    1
    27     7    28    1
    28     9    10    1
    29     9    11    2
    30    10    13   ar
