@<TRIPOS>MOLECULE
MMNYKQIDRZNIKT-VSADUBDNSA-N	6044873	-1247.886404565941
 81 84 0 0 0
SMALL
MULLIKEN NwChem

@<TRIPOS>ATOM
      1 C          -4.0935    0.6607    6.3703 C.3     1  LIG1      -0.45999999999999996
      2 C          -1.8857    0.6705    5.1284 C.3     1  LIG1      -0.45999999999999996
      3 C          -4.4571    2.1362    3.1658 C.2     1  LIG1      -0.4500000000000002
      4 C          -2.0628   -2.3198    2.4725 C.3     1  LIG1      -0.4800000000000004
      5 C           5.2451   -2.1415   -2.4186 C.3     1  LIG1      -0.4800000000000004
      6 C           3.3877   -0.7744   -0.0901 C.3     1  LIG1      -0.4900000000000002
      7 C          -2.4850    1.6044   -0.0001 C.3     1  LIG1         -0.5
      8 C          -1.1164    1.3866   -2.5857 C.3     1  LIG1      -0.4800000000000004
      9 C          -4.4180   -0.3477    3.4189 C.3     1  LIG1      -0.34999999999999964
     10 C          -3.9573   -0.7163    1.9916 C.3     1  LIG1      -0.2699999999999996
     11 C           2.1002   -1.9973   -2.6991 C.3     1  LIG1      -0.29000000000000004
     12 C           0.6352   -1.5458   -2.6392 C.3     1  LIG1      -0.3600000000000003
     13 C          -2.7838   -1.4134   -0.7116 C.3     1  LIG1      -0.29000000000000004
     14 C           1.0346    1.4016   -0.1298 C.3     1  LIG1      -0.34999999999999964
     15 C           5.1429    1.0812   -1.9442 C.3     1  LIG1      -0.29000000000000004
     16 C           3.6887    1.3141   -1.4949 C.3     1  LIG1      -0.3099999999999996
     17 C          -2.1850   -0.8196   -2.0105 C.3     1  LIG1      -0.3099999999999996
     18 C          -0.1640    0.9829    0.7285 C.3     1  LIG1      -0.2999999999999998
     19 C          -3.3116    1.2499    5.1804 C.3     1  LIG1      -0.15000000000000036
     20 C          -4.0653    1.0679    3.8700 C.2     1  LIG1      0.2400000000000002
     21 C          -2.4357   -0.9570    1.8590 C.3     1  LIG1      -0.08000000000000007
     22 C           4.4626   -1.0522   -3.1693 C.3     1  LIG1      -0.08999999999999986
     23 C          -1.8849   -0.8723    0.4102 C.3     1  LIG1      -0.11000000000000032
     24 C           3.0196   -0.7787   -2.6805 C.3     1  LIG1      -0.1299999999999999
     25 C           1.3900    0.3024   -1.1139 C.2     1  LIG1      0.08000000000000007
     26 C           0.3882   -0.3662   -1.7218 C.2     1  LIG1      0.08999999999999986
     27 C           5.2456    0.2776   -3.2495 C.3     1  LIG1       0.1299999999999999
     28 C           2.8784   -0.0052   -1.3358 C.3     1  LIG1      0.05999999999999961
     29 C          -1.3958    0.5221   -0.0963 C.3     1  LIG1      0.1200000000000001
     30 C          -1.0515    0.1847   -1.6083 C.3     1  LIG1      0.040000000000000036
     31 O           4.8269    1.0615   -4.3740 O.3     1  LIG1      -0.6899999999999995
     32 H          -4.2186   -0.4238    6.2727 H       1  LIG1       0.15000000000000002
     33 H          -5.0899    1.1094    6.4539 H       1  LIG1       0.15000000000000002
     34 H          -3.5558    0.8447    7.3079 H       1  LIG1       0.15000000000000002
     35 H          -1.8932   -0.4114    4.9490 H       1  LIG1       0.16000000000000003
     36 H          -1.2967    1.1397    4.3326 H       1  LIG1       0.15000000000000002
     37 H          -1.3694    0.8451    6.0802 H       1  LIG1       0.15000000000000002
     38 H          -5.0245    2.0458    2.2424 H       1  LIG1       0.15000000000000002
     39 H          -4.2302    3.1486    3.4923 H       1  LIG1          0.14
     40 H          -2.4802   -3.1377    1.8699 H       1  LIG1          0.14
     41 H          -0.9752   -2.4555    2.5114 H       1  LIG1          0.14
     42 H          -2.4474   -2.4349    3.4926 H       1  LIG1       0.15000000000000002
     43 H           4.6536   -3.0582   -2.3163 H       1  LIG1       0.15000000000000002
     44 H           6.1561   -2.3958   -2.9744 H       1  LIG1       0.15000000000000002
     45 H           5.5524   -1.8334   -1.4157 H       1  LIG1       0.16000000000000003
     46 H           3.0202   -1.8037   -0.0768 H       1  LIG1       0.15000000000000002
     47 H           4.4778   -0.8059   -0.0287 H       1  LIG1       0.15000000000000002
     48 H           3.0297   -0.2880    0.8244 H       1  LIG1       0.15000000000000002
     49 H          -2.1094    2.5660   -0.3685 H       1  LIG1          0.14
     50 H          -3.3824    1.3550   -0.5779 H       1  LIG1          0.14
     51 H          -2.7853    1.7518    1.0406 H       1  LIG1       0.15000000000000002
     52 H          -2.1142    1.8361   -2.6172 H       1  LIG1          0.14
     53 H          -0.3977    2.1719   -2.3367 H       1  LIG1       0.15000000000000002
     54 H          -0.8848    1.0385   -3.5999 H       1  LIG1          0.14
     55 H          -4.0190   -1.0809    4.1290 H       1  LIG1       0.15000000000000002
     56 H          -5.5092   -0.4621    3.4689 H       1  LIG1       0.15000000000000002
     57 H          -4.4869   -1.6274    1.6797 H       1  LIG1          0.13
     58 H          -4.2841    0.0710    1.3064 H       1  LIG1       0.15000000000000002
     59 H           2.2710   -2.5933   -3.6049 H       1  LIG1          0.13
     60 H           2.3220   -2.6564   -1.8515 H       1  LIG1       0.15000000000000002
     61 H           0.0113   -2.3928   -2.3244 H       1  LIG1       0.15000000000000002
     62 H           0.2898   -1.2913   -3.6545 H       1  LIG1       0.15000000000000002
     63 H          -3.8177   -1.0759   -0.5876 H       1  LIG1          0.14
     64 H          -2.8137   -2.5096   -0.7164 H       1  LIG1          0.13
     65 H           1.8793    1.6214    0.5319 H       1  LIG1       0.15000000000000002
     66 H           0.8177    2.3451   -0.6508 H       1  LIG1       0.15000000000000002
     67 H           5.6417    2.0461   -2.0921 H       1  LIG1          0.14
     68 H           5.6967    0.5583   -1.1552 H       1  LIG1       0.15000000000000002
     69 H           3.1744    1.9542   -2.2278 H       1  LIG1          0.14
     70 H           3.6975    1.8828   -0.5588 H       1  LIG1          0.14
     71 H          -1.8315   -1.5952   -2.6927 H       1  LIG1          0.14
     72 H          -2.9592   -0.2742   -2.5619 H       1  LIG1          0.13
     73 H           0.1715    0.1613    1.3733 H       1  LIG1          0.14
     74 H          -0.4430    1.8033    1.4011 H       1  LIG1          0.13
     75 H          -3.2199    2.3311    5.3521 H       1  LIG1          0.13
     76 H          -1.9287   -0.1781    2.4428 H       1  LIG1          0.14
     77 H           4.3660   -1.3955   -4.2088 H       1  LIG1          0.12
     78 H          -0.9733   -1.4885    0.3932 H       1  LIG1          0.12
     79 H           2.5975   -0.0894   -3.4324 H       1  LIG1          0.12
     80 H           6.2994    0.0593   -3.4595 H       1  LIG1          0.13
     81 H           3.9185    1.3569   -4.2101 H       1  LIG1       0.42000000000000004
@<TRIPOS>BOND
     1    31    81    1
     2    31    27    1
     3    77    22    1
     4    62    12    1
     5    59    11    1
     6    54     8    1
     7    80    27    1
     8    79    24    1
     9    27    22    1
    10    27    15    1
    11    22    24    1
    12    22     5    1
    13    44     5    1
    14    11    24    1
    15    11    12    1
    16    11    60    1
    17    71    17    1
    18    24    28    1
    19    12    61    1
    20    12    26    1
    21    52     8    1
    22     8    53    1
    23     8    30    1
    24    72    17    1
    25     5    43    1
    26     5    45    1
    27    69    16    1
    28    67    15    1
    29    17    30    1
    30    17    13    1
    31    15    16    1
    32    15    68    1
    33    26    30    1
    34    26    25    2
    35    30    29    1
    36    16    28    1
    37    16    70    1
    38    28    25    1
    39    28     6    1
    40    25    14    1
    41    64    13    1
    42    13    63    1
    43    13    23    1
    44    66    14    1
    45    50     7    1
    46    49     7    1
    47    14    65    1
    48    14    18    1
    49    29     7    1
    50    29    23    1
    51    29    18    1
    52     6    46    1
    53     6    47    1
    54     6    48    1
    55     7    51    1
    56    78    23    1
    57    23    21    1
    58    18    73    1
    59    18    74    1
    60    58    10    1
    61    57    10    1
    62    21    10    1
    63    21    76    1
    64    21     4    1
    65    40     4    1
    66    10     9    1
    67    38     3    1
    68     4    41    1
    69     4    42    1
    70     3    39    1
    71     3    20    2
    72     9    56    1
    73     9    20    1
    74     9    55    1
    75    20    19    1
    76    36     2    1
    77    35     2    1
    78     2    19    1
    79     2    37    1
    80    19    75    1
    81    19     1    1
    82    32     1    1
    83     1    33    1
    84     1    34    1
