@<TRIPOS>MOLECULE
MMWCIQZXVOZEGG-XJTPDSDZSA-H	11095259	-2387.3488130726187
 33 33 0 0 0
SMALL
MULLIKEN NwChem

@<TRIPOS>ATOM
      1 C           0.7954   -1.7989   -0.3995 C.3     1  LIG1       0.1299999999999999
      2 C          -0.4470   -1.6959    0.4914 C.3     1  LIG1       0.05999999999999961
      3 C           1.0328    0.7519   -0.4486 C.3     1  LIG1       0.1299999999999999
      4 C           1.7235   -0.6152   -0.1731 C.3     1  LIG1       0.09999999999999964
      5 C          -1.3202   -0.4149    0.2852 C.3     1  LIG1       0.1299999999999999
      6 C          -0.5200    0.9423   -0.0706 C.3     1  LIG1       0.13999999999999968
      7 O           0.3553   -1.9593   -1.7704 O.3     1  LIG1      -0.7200000000000006
      8 O          -1.2011   -2.8877    0.2272 O.3     1  LIG1        -0.75
      9 O           1.8186    1.7381    0.2511 O.3     1  LIG1      -0.7400000000000002
     10 O           4.6338    0.6598    0.4778 O.3     1  LIG1      -0.7899999999999991
     11 O           5.4616   -1.0142   -1.3423 O.2     1  LIG1      -0.7899999999999991
     12 O           4.4953   -1.9048    0.8988 O.3     1  LIG1      -0.8000000000000007
     13 O          -3.8098   -0.6542    3.3754 O.3     1  LIG1      -0.7799999999999994
     14 O          -4.5997   -1.2096    0.9529 O.2     1  LIG1      -0.7799999999999994
     15 O          -2.8550   -2.7012    2.1292 O.3     1  LIG1      -0.8100000000000005
     16 O          -0.1876    3.6230   -2.4982 O.2     1  LIG1      -0.8000000000000007
     17 O          -1.3907    4.0944   -0.2358 O.3     1  LIG1      -0.8000000000000007
     18 O          -2.7392    3.3024   -2.3184 O.3     1  LIG1      -0.8000000000000007
     19 O           2.9442   -0.7550   -0.9131 O.3     1  LIG1      -0.6600000000000001
     20 O          -2.1580   -0.2444    1.4565 O.3     1  LIG1      -0.6600000000000001
     21 O          -1.2255    1.5730   -1.1331 O.3     1  LIG1      -0.6699999999999999
     22 P           4.5155   -0.7608   -0.1425 P.3     1  LIG1       0.9000000000000004
     23 P          -3.4710   -1.2502    1.9963 P.3     1  LIG1       0.9299999999999997
     24 P          -1.3826    3.3110   -1.5662 P.3     1  LIG1       0.8900000000000006
     25 H           1.3505   -2.7106   -0.1092 H       1  LIG1       0.10999999999999999
     26 H          -0.1164   -1.6854    1.5443 H       1  LIG1          0.12
     27 H           1.0727    0.9340   -1.5306 H       1  LIG1       0.10999999999999999
     28 H           1.9476   -0.6413    0.9067 H       1  LIG1          0.12
     29 H          -1.9511   -0.5974   -0.5949 H       1  LIG1       0.10999999999999999
     30 H          -0.5319    1.5652    0.8356 H       1  LIG1       0.09999999999999998
     31 H          -0.5336   -2.3351   -1.6209 H       1  LIG1       0.42000000000000004
     32 H          -1.9540   -2.8696    0.9523 H       1  LIG1       0.43000000000000005
     33 H           2.7526    1.4197    0.2069 H       1  LIG1       0.41000000000000003
@<TRIPOS>BOND
     1    16    24    2
     2    18    24    1
     3     7    31    1
     4     7     1    1
     5    24    21    1
     6    24    17    1
     7    27     3    1
     8    11    22    2
     9    21     6    1
    10    19     4    1
    11    19    22    1
    12    29     5    1
    13     3     4    1
    14     3     6    1
    15     3     9    1
    16     1     4    1
    17     1    25    1
    18     1     2    1
    19     4    28    1
    20    22    10    1
    21    22    12    1
    22     6     5    1
    23     6    30    1
    24    33     9    1
    25     8     2    1
    26     8    32    1
    27     5     2    1
    28     5    20    1
    29     2    26    1
    30    14    23    2
    31    20    23    1
    32    23    15    1
    33    23    13    1
