@<TRIPOS>MOLECULE
MNQZXJOMYWMBOU-VKHMYHEASA-N	6044877	-343.5060749047061
 12 11 0 0 0
SMALL
MULLIKEN NwChem

@<TRIPOS>ATOM
      1 C           1.2988    0.5957    0.0941 C.2     1  LIG1              0.25
      2 C          -0.4877   -1.1655    0.4571 C.3     1  LIG1       -0.08000000000000007
      3 C           0.4822   -0.5304   -0.5402 C.3     1  LIG1       0.04999999999999982
      4 O           1.1381    0.9987    1.2299 O.2     1  LIG1      -0.4399999999999995
      5 O          -1.4699   -0.2089    0.8487 O.3     1  LIG1      -0.6699999999999999
      6 O          -0.2194    0.0615   -1.6298 O.3     1  LIG1      -0.6600000000000001
      7 H           2.0133    1.0912   -0.5960 H       1  LIG1       0.16000000000000003
      8 H          -1.0261   -1.9819   -0.0325 H       1  LIG1       0.17000000000000004
      9 H           0.0581   -1.5710    1.3201 H       1  LIG1       0.17000000000000004
     10 H           1.1641   -1.2818   -0.9604 H       1  LIG1       0.18000000000000005
     11 H          -1.0080    0.4198    1.4303 H       1  LIG1       0.43000000000000005
     12 H          -1.0177    0.4475   -1.2209 H       1  LIG1       0.43000000000000005
@<TRIPOS>BOND
     1     6    12    1
     2     6     3    1
     3    10     3    1
     4     7     1    1
     5     3     1    1
     6     3     2    1
     7     8     2    1
     8     1     4    2
     9     2     5    1
    10     2     9    1
    11     5    11    1
