@<TRIPOS>MOLECULE
MOBMOJGXNHLLIR-GBNDHIKLSA-L	11095253	-1477.6177520674703
 32 33 0 0 0
SMALL
MULLIKEN NwChem

@<TRIPOS>ATOM
      1 C          -0.8670    1.9846    0.2281 C.2     1  LIG1       -0.040000000000000036
      2 C           2.2437   -1.8007   -1.0657 C.3     1  LIG1       -0.09999999999999964
      3 C          -1.5011    0.7476    0.3996 C.3     1  LIG1       0.019999999999999574
      4 C           1.1361   -1.7983   -0.0257 C.3     1  LIG1       0.13999999999999968
      5 C          -0.0488   -2.7012   -0.4164 C.3     1  LIG1       0.07000000000000028
      6 C          -1.3102   -1.7368   -0.3857 C.3     1  LIG1       0.15000000000000036
      7 C          -0.7931   -0.5685    0.4975 C.3     1  LIG1       0.05999999999999961
      8 C          -2.9100    0.8554    0.6290 C.2     1  LIG1       0.4400000000000004
      9 C          -2.8424    3.1940    0.4179 C.2     1  LIG1       0.5499999999999998
     10 N          -1.4523    3.1719    0.2121 N.am    1  LIG1      -0.5700000000000003
     11 N          -3.5484    2.0064    0.6410 N.am    1  LIG1      -0.6200000000000001
     12 O          -0.2970   -3.7204    0.5164 O.3     1  LIG1      -0.7300000000000004
     13 O          -2.3710   -2.3999    0.1461 O.3     1  LIG1      -0.7799999999999994
     14 O          -3.6714   -0.2394    0.8802 O.2     1  LIG1      -0.6999999999999993
     15 O          -3.4490    4.2820    0.4054 O.2     1  LIG1      -0.6799999999999997
     16 O           2.1494    1.0306   -1.6879 O.3     1  LIG1      -0.7200000000000006
     17 O           2.7853    0.9661    0.8068 O.3     1  LIG1      -0.7100000000000009
     18 O           4.6426    1.2287   -0.9768 O.2     1  LIG1      -0.5999999999999996
     19 O           3.3937   -1.0029   -0.7283 O.3     1  LIG1      -0.5600000000000005
     20 O           0.6194   -0.4472    0.1039 O.3     1  LIG1      -0.6199999999999992
     21 P           3.3317    0.6262   -0.6662 P.3     1  LIG1       1.2200000000000006
     22 H           0.2217    2.0060    0.0978 H       1  LIG1       0.10999999999999999
     23 H           2.6208   -2.8226   -1.1707 H       1  LIG1       0.19999999999999996
     24 H           1.8416   -1.4762   -2.0335 H       1  LIG1       0.18000000000000005
     25 H           1.5302   -2.1195    0.9475 H       1  LIG1       0.16000000000000003
     26 H           0.1065   -3.1237   -1.4275 H       1  LIG1          0.13
     27 H          -1.4701   -1.3260   -1.4077 H       1  LIG1       0.07999999999999996
     28 H          -0.7940   -0.9654    1.5299 H       1  LIG1          0.14
     29 H          -1.2894   -3.5214    0.6659 H       1  LIG1          0.39
     30 H          -3.1925   -1.1055    0.6552 H       1  LIG1       0.43000000000000005
     31 H           1.2748    0.7744   -1.3126 H       1  LIG1          0.47
     32 H           1.8796    0.5715    0.8980 H       1  LIG1           0.48
@<TRIPOS>BOND
     1    24     2    1
     2    16    31    1
     3    16    21    1
     4    26     5    1
     5    27     6    1
     6    23     2    1
     7     2    19    1
     8     2     4    1
     9    18    21    2
    10    19    21    1
    11    21    17    1
    12     5     6    1
    13     5     4    1
    14     5    12    1
    15     6    13    1
    16     6     7    1
    17     4    20    1
    18     4    25    1
    19    22     1    1
    20    20     7    1
    21    10     1    2
    22    10     9    1
    23     1     3    1
    24     3     7    1
    25     3     8    1
    26    15     9    2
    27     9    11    1
    28     7    28    1
    29    12    29    1
    30     8    11    2
    31     8    14    1
    32    30    14    1
    33    17    32    1
