@<TRIPOS>MOLECULE
MQSRGWNVEZRLDK-UHFFFAOYSA-N	6044884	-378.7871998871151
 14 14 0 0 0
SMALL
MULLIKEN NwChem

@<TRIPOS>ATOM
      1 C           0.7063    0.0585    1.3759 C.3     1  LIG1       -0.4400000000000004
      2 C           0.1469    1.3988    1.8061 C.2     1  LIG1       0.2699999999999996
      3 C           0.1904   -1.7671   -0.4276 C.ar    1  LIG1       -0.11000000000000032
      4 C          -0.5004   -0.5231   -2.0221 C.ar    1  LIG1       0.1900000000000004
      5 C           0.2413   -0.4811    0.0608 C.ar    1  LIG1       0.3200000000000003
      6 N          -0.2706   -1.7853   -1.7242 N.ar    1  LIG1         -0.5
      7 N          -0.1944    0.3097   -0.9855 N.ar    1  LIG1      -0.5899999999999999
      8 O          -0.4244    2.1901    1.0839 O.2     1  LIG1      -0.4399999999999995
      9 H           0.5099   -0.6678    2.1757 H       1  LIG1       0.21999999999999997
     10 H           1.8032    0.2006    1.3951 H       1  LIG1       0.21999999999999997
     11 H           0.3394    1.6525    2.8709 H       1  LIG1       0.16000000000000003
     12 H           0.4660   -2.6798    0.0853 H       1  LIG1       0.15000000000000002
     13 H          -0.8872   -0.1549   -2.9630 H       1  LIG1       0.18999999999999995
     14 H          -0.3773    1.3006   -0.8966 H       1  LIG1           0.38
@<TRIPOS>BOND
     1    13     4    1
     2     4     6   ar
     3     4     7   ar
     4     6     3   ar
     5     7    14    1
     6     7     5   ar
     7     3     5   ar
     8     3    12    1
     9     5     1    1
    10     8     2    2
    11     1    10    1
    12     1     2    1
    13     1     9    1
    14     2    11    1
