@<TRIPOS>MOLECULE
MRVYFOANPDTYBY-YORTWTKJSA-F	11095249	-2954.072263853662
 36 36 0 0 0
SMALL
MULLIKEN NwChem

@<TRIPOS>ATOM
      1 C          -0.8405    1.6486   -0.4136 C.3     1  LIG1       0.08000000000000007
      2 C           0.4612    1.8018    0.4129 C.3     1  LIG1       0.11000000000000032
      3 C          -1.6721    0.4636    0.1584 C.3     1  LIG1       0.1200000000000001
      4 C           1.5307    0.7577    0.0156 C.3     1  LIG1       0.11000000000000032
      5 C          -0.7529   -0.8994    0.2109 C.3     1  LIG1       0.1299999999999999
      6 C           0.8052   -0.6662   -0.3438 C.3     1  LIG1       0.08000000000000007
      7 O          -0.5877    1.5872   -1.8241 O.3     1  LIG1      -0.7400000000000002
      8 O           0.9391    3.1581    0.3211 O.3     1  LIG1      -0.7599999999999998
      9 O          -5.4379    0.6541   -1.2025 O.2     1  LIG1      -0.8100000000000005
     10 O          -4.7483    1.5327    1.1437 O.3     1  LIG1      -0.8100000000000005
     11 O          -4.0205    2.8040   -0.9827 O.3     1  LIG1      -0.8100000000000005
     12 O           4.7793    2.0546    0.2373 O.2     1  LIG1      -0.7899999999999991
     13 O           4.5561    1.1525    2.6543 O.3     1  LIG1      -0.7899999999999991
     14 O           3.1221    3.1574    1.8850 O.3     1  LIG1      -0.8000000000000007
     15 O          -1.9462   -2.6538    3.5512 O.3     1  LIG1      -0.8100000000000005
     16 O          -2.1256   -3.7670    1.2061 O.2     1  LIG1      -0.8000000000000007
     17 O           0.1086   -3.8016    2.5176 O.3     1  LIG1      -0.8000000000000007
     18 O           0.7329   -2.4151   -3.9137 O.2     1  LIG1      -0.7899999999999991
     19 O           2.4728   -0.5237   -3.8459 O.3     1  LIG1      -0.8000000000000007
     20 O           2.7551   -2.5974   -2.2999 O.3     1  LIG1      -0.7899999999999991
     21 O          -2.9606    0.3476   -0.5043 O.3     1  LIG1      -0.6699999999999999
     22 O           2.5870    0.6896    1.0414 O.3     1  LIG1      -0.6699999999999999
     23 O          -0.7563   -1.4427    1.5451 O.3     1  LIG1      -0.6799999999999997
     24 O           0.7678   -0.7978   -1.8005 O.3     1  LIG1      -0.6699999999999999
     25 P          -4.3716    1.4206   -0.3599 P.3     1  LIG1       0.8900000000000006
     26 P           3.8443    1.8262    1.4505 P.3     1  LIG1       0.9100000000000001
     27 P          -1.2184   -3.0459    2.2309 P.3     1  LIG1       0.8900000000000006
     28 P           1.7842   -1.6644   -3.0524 P.3     1  LIG1       0.9100000000000001
     29 H          -1.4461    2.5533   -0.2786 H       1  LIG1          0.12
     30 H           0.2111    1.5803    1.4672 H       1  LIG1       0.10999999999999999
     31 H          -1.8523    0.6893    1.2201 H       1  LIG1       0.10999999999999999
     32 H           1.9896    1.0719   -0.9280 H       1  LIG1          0.12
     33 H          -1.1769   -1.6159   -0.5017 H       1  LIG1          0.12
     34 H           1.3963   -1.4743    0.0964 H       1  LIG1          0.12
     35 H          -0.1459    0.7188   -2.0038 H       1  LIG1       0.43000000000000005
     36 H           1.7653    3.1773    0.8937 H       1  LIG1       0.42000000000000004
@<TRIPOS>BOND
     1    18    28    2
     2    19    28    1
     3    28    20    1
     4    28    24    1
     5    35     7    1
     6     7     1    1
     7    24     6    1
     8     9    25    2
     9    11    25    1
    10    32     4    1
    11    21    25    1
    12    21     3    1
    13    33     5    1
    14     1    29    1
    15     1     3    1
    16     1     2    1
    17    25    10    1
    18     6     4    1
    19     6    34    1
    20     6     5    1
    21     4     2    1
    22     4    22    1
    23     3     5    1
    24     3    31    1
    25     5    23    1
    26    12    26    2
    27     8     2    1
    28     8    36    1
    29     2    30    1
    30    22    26    1
    31    16    27    2
    32    26    14    1
    33    26    13    1
    34    23    27    1
    35    27    17    1
    36    27    15    1
