@<TRIPOS>MOLECULE
MTCFGRXMJLQNBG-REOHCLBHSA-N	6044887	-398.88074799164053
 14 13 0 0 0
SMALL
MULLIKEN NwChem

@<TRIPOS>ATOM
      1 CB          0.1165   -1.4100    0.8912 C.3     1  SER1       -0.04999999999999982
      2 CA          0.0306    0.1201    0.8084 C.3     1  SER1       -0.05999999999999961
      3 C           0.6405    0.6147   -0.5037 C.2     1  SER1       0.5999999999999996
      4 N          -1.3721    0.5286    0.9277 N.3     1  SER1      -0.7599999999999998
      5 OG         -0.6469   -2.0353   -0.1288 O.3     1  SER1      -0.6699999999999999
      6 O           0.8465   -0.0562   -1.4993 O.2     1  SER1      -0.5199999999999996
      7 OXT         0.8717    1.9478   -0.4756 O.3     1  SER1      -0.5800000000000001
      8 HB1        -0.3128   -1.7274    1.8455 H       1  SER1       0.17000000000000004
      9 HB2         1.1716   -1.7225    0.8613 H       1  SER1       0.16000000000000003
     10 HA          0.5975    0.5674    1.6345 H       1  SER1       0.18000000000000005
     11 H1         -1.4822    1.5178    0.7160 H       1  SER1       0.33999999999999997
     12 H2         -1.9176   -0.0075    0.2540 H       1  SER1       0.32999999999999996
     13 H          -0.2113   -1.7922   -0.9653 H       1  SER1       0.43000000000000005
     14 HXT         1.1903    2.1976   -1.3643 H       1  SER1       0.44999999999999996
@<TRIPOS>BOND
     1     6     3    2
     2    14     7    1
     3    13     5    1
     4     3     7    1
     5     3     2    1
     6     5     1    1
     7    12     4    1
     8    11     4    1
     9     2     1    1
    10     2     4    1
    11     2    10    1
    12     9     1    1
    13     1     8    1
