@<TRIPOS>MOLECULE
MTCFGRXMJLQNBG-UWTATZPHSA-N	6044888	-398.8797942100557
 14 13 0 0 0
SMALL
MULLIKEN NwChem

@<TRIPOS>ATOM
      1 C           0.5603    0.1452   -1.4785 C.3     1  LIG1       -0.04999999999999982
      2 CA         -0.3292    0.6507   -0.3225 C.3     1  LIG1       -0.08000000000000007
      3 C           0.1436    0.0406    0.9936 C.2     1  LIG1       0.6200000000000001
      4 N          -1.7449    0.2829   -0.4601 N.3     1  LIG1      -0.7699999999999996
      5 O           0.3764   -1.2413   -1.7079 O.3     1  LIG1      -0.6699999999999999
      6 O           0.5828   -1.0910    1.1081 O.2     1  LIG1      -0.5199999999999996
      7 O           0.0094    0.8736    2.0399 O.3     1  LIG1      -0.5700000000000003
      8 H1          1.6169    0.3936   -1.2816 H       1  LIG1       0.15000000000000002
      9 H2          0.2638    0.6568   -2.4011 H       1  LIG1       0.16000000000000003
     10 HA         -0.2553    1.7398   -0.2371 H       1  LIG1       0.18000000000000005
     11 H1         -2.1777    0.8818   -1.1612 H       1  LIG1       0.33999999999999997
     12 H2         -1.7720   -0.6657   -0.8363 H       1  LIG1       0.32999999999999996
     13 H           0.6287   -1.6810   -0.8746 H       1  LIG1       0.43000000000000005
     14 H           0.2848    0.3754    2.8337 H       1  LIG1       0.44999999999999996
@<TRIPOS>BOND
     1     9     1    1
     2     5     1    1
     3     5    13    1
     4     1     8    1
     5     1     2    1
     6    11     4    1
     7    12     4    1
     8     4     2    1
     9     2    10    1
    10     2     3    1
    11     3     6    2
    12     3     7    1
    13     7    14    1
