@<TRIPOS>MOLECULE
MTVWFVDWRVYDOR-QMMMGPOBSA-N	6044889	-611.6108807311973
 22 22 0 0 0
SMALL
MULLIKEN NwChem

@<TRIPOS>ATOM
      1 C           0.8448    0.7949   -0.4409 C.ar    1  LIG1      -0.21999999999999975
      2 C           0.9861    0.1309   -1.6640 C.ar    1  LIG1      -0.21999999999999975
      3 C          -0.5963   -0.9692    0.3284 C.ar    1  LIG1      -0.28000000000000025
      4 C          -0.2516    2.4397    1.8478 C.3     1  LIG1       -0.07000000000000028
      5 C           0.0502    0.2514    0.5739 C.ar    1  LIG1      0.11000000000000032
      6 C           0.3429   -1.0816   -1.8998 C.ar    1  LIG1       0.3099999999999996
      7 C          -0.4624   -1.6399   -0.8838 C.ar    1  LIG1       0.3099999999999996
      8 C          -0.0705    0.9163    1.9354 C.3     1  LIG1       0.040000000000000036
      9 O          -1.3721    2.8156    1.0650 O.3     1  LIG1      -0.6600000000000001
     10 O           0.4369   -1.7767   -3.0697 O.3     1  LIG1      -0.6799999999999997
     11 O          -1.0737   -2.8269   -1.1620 O.3     1  LIG1      -0.6799999999999997
     12 O           1.0413    0.6077    2.7842 O.3     1  LIG1      -0.6699999999999999
     13 H           1.3622    1.7391   -0.2937 H       1  LIG1       0.16000000000000003
     14 H           1.6049    0.5623   -2.4489 H       1  LIG1       0.17000000000000004
     15 H          -1.2172   -1.4091    1.1073 H       1  LIG1       0.17000000000000004
     16 H          -0.4243    2.8278    2.8551 H       1  LIG1       0.16000000000000003
     17 H           0.6838    2.9003    1.4825 H       1  LIG1          0.14
     18 H          -0.9453    0.5055    2.4503 H       1  LIG1       0.15000000000000002
     19 H          -1.2432    2.4327    0.1816 H       1  LIG1       0.42000000000000004
     20 H           1.0212   -1.2933   -3.6737 H       1  LIG1       0.44999999999999996
     21 H          -1.5810   -3.1054   -0.3837 H       1  LIG1       0.45999999999999996
     22 H           1.8466    0.7480    2.2609 H       1  LIG1       0.42000000000000004
@<TRIPOS>BOND
     1    20    10    1
     2    10     6    1
     3    14     2    1
     4     6     2   ar
     5     6     7   ar
     6     2     1   ar
     7    11     7    1
     8    11    21    1
     9     7     3   ar
    10     1    13    1
    11     1     5   ar
    12    19     9    1
    13     3     5   ar
    14     3    15    1
    15     5     8    1
    16     9     4    1
    17    17     4    1
    18     4     8    1
    19     4    16    1
    20     8    18    1
    21     8    12    1
    22    22    12    1
