@<TRIPOS>MOLECULE
MUMGGOZAMZWBJJ-DYKIIFRCSA-N	6044890	-890.9696051232836
 49 52 0 0 0
SMALL
MULLIKEN NwChem

@<TRIPOS>ATOM
      1 C           2.2234    1.6981   -0.5381 C.3     1  LIG1      -0.4900000000000002
      2 C          -2.6719   -1.2733    0.8463 C.3     1  LIG1         -0.5
      3 C           2.0539   -1.5398   -0.5151 C.3     1  LIG1      -0.3600000000000003
      4 C           0.8965   -1.7577    0.4783 C.3     1  LIG1      -0.28000000000000025
      5 C          -0.7015   -1.5766    3.1236 C.3     1  LIG1      -0.2999999999999998
      6 C          -2.0642   -1.3658    3.8444 C.3     1  LIG1      -0.2999999999999998
      7 C           1.4478    1.5264   -3.6345 C.3     1  LIG1       -0.3700000000000001
      8 C          -0.8256    1.6836    0.3666 C.3     1  LIG1      -0.29000000000000004
      9 C           0.5294    1.5255   -2.4088 C.3     1  LIG1      -0.2999999999999998
     10 C          -2.1774    1.2182    0.9704 C.3     1  LIG1      -0.3099999999999996
     11 C           2.0228   -0.8271   -2.8894 C.2     1  LIG1      -0.28000000000000025
     12 C           1.7436   -0.5344   -1.6023 C.2     1  LIG1      0.20000000000000018
     13 C           1.8763    0.1175   -4.0095 C.2     1  LIG1       0.45999999999999996
     14 C           0.4427   -0.3988    1.0211 C.3     1  LIG1      -0.09999999999999964
     15 C          -0.6135   -0.3891    2.1517 C.3     1  LIG1      -0.11000000000000032
     16 C          -0.0250    0.4829   -0.1666 C.3     1  LIG1      -0.11000000000000032
     17 C          -2.7866   -0.2110    3.1049 C.3     1  LIG1       0.1200000000000001
     18 C           1.1303    0.8055   -1.1738 C.3     1  LIG1      0.03000000000000025
     19 C          -2.0787   -0.1417    1.7151 C.3     1  LIG1      0.09999999999999964
     20 O           2.1283   -0.2048   -5.1628 O.2     1  LIG1      -0.5600000000000005
     21 O          -2.5876    0.9631    3.8972 O.3     1  LIG1      -0.6799999999999997
     22 H           3.0072    1.9324   -1.2653 H       1  LIG1       0.16000000000000003
     23 H           2.7077    1.2182    0.3165 H       1  LIG1       0.16000000000000003
     24 H           1.7904    2.6425   -0.1904 H       1  LIG1       0.16000000000000003
     25 H          -3.7333   -1.0750    0.6513 H       1  LIG1       0.15000000000000002
     26 H          -2.1741   -1.3554   -0.1229 H       1  LIG1       0.16000000000000003
     27 H          -2.6070   -2.2527    1.3309 H       1  LIG1       0.15000000000000002
     28 H           2.3668   -2.4879   -0.9660 H       1  LIG1       0.16000000000000003
     29 H           2.9198   -1.1687    0.0554 H       1  LIG1       0.17000000000000004
     30 H           1.2381   -2.4136    1.2871 H       1  LIG1       0.15000000000000002
     31 H           0.0653   -2.2721   -0.0217 H       1  LIG1          0.14
     32 H           0.1416   -1.6028    3.8219 H       1  LIG1          0.14
     33 H          -0.6940   -2.5292    2.5833 H       1  LIG1       0.15000000000000002
     34 H          -2.6704   -2.2770    3.8294 H       1  LIG1       0.15000000000000002
     35 H          -1.9404   -1.0764    4.8912 H       1  LIG1          0.14
     36 H           0.9670    1.9877   -4.5026 H       1  LIG1       0.16000000000000003
     37 H           2.3609    2.1054   -3.4355 H       1  LIG1       0.18999999999999995
     38 H          -1.0269    2.4167   -0.4206 H       1  LIG1       0.15000000000000002
     39 H          -0.2342    2.2051    1.1301 H       1  LIG1          0.14
     40 H          -0.4100    1.0242   -2.6798 H       1  LIG1       0.15000000000000002
     41 H           0.2699    2.5565   -2.1453 H       1  LIG1       0.16000000000000003
     42 H          -2.9185    1.1416    0.1651 H       1  LIG1          0.14
     43 H          -2.5335    2.0081    1.6422 H       1  LIG1          0.12
     44 H           2.4252   -1.8009   -3.1619 H       1  LIG1          0.14
     45 H           1.3388    0.0699    1.4525 H       1  LIG1          0.13
     46 H          -0.3814    0.4850    2.7746 H       1  LIG1          0.13
     47 H          -0.7286   -0.1218   -0.7559 H       1  LIG1          0.14
     48 H          -3.8647   -0.4046    2.9950 H       1  LIG1          0.12
     49 H          -3.1251    1.6747    3.5179 H       1  LIG1       0.42000000000000004
@<TRIPOS>BOND
     1    20    13    2
     2    36     7    1
     3    13     7    1
     4    13    11    1
     5     7    37    1
     6     7     9    1
     7    44    11    1
     8    11    12    2
     9    40     9    1
    10     9    41    1
    11     9    18    1
    12    12    18    1
    13    12     3    1
    14    22     1    1
    15    18     1    1
    16    18    16    1
    17    28     3    1
    18    47    16    1
    19     1    24    1
    20     1    23    1
    21     3    29    1
    22     3     4    1
    23    38     8    1
    24    16     8    1
    25    16    14    1
    26    26     2    1
    27    31     4    1
    28    42    10    1
    29     8    10    1
    30     8    39    1
    31     4    14    1
    32     4    30    1
    33    25     2    1
    34     2    27    1
    35     2    19    1
    36    10    43    1
    37    10    19    1
    38    14    45    1
    39    14    15    1
    40    19    15    1
    41    19    17    1
    42    15    46    1
    43    15     5    1
    44    33     5    1
    45    48    17    1
    46    17     6    1
    47    17    21    1
    48     5    32    1
    49     5     6    1
    50    49    21    1
    51    34     6    1
    52     6    35    1
