@<TRIPOS>MOLECULE
MVGBKLTYYAYYGY-DUXPYHPUSA-M	6044892	-397.19612491610667
 11 10 0 0 0
SMALL
MULLIKEN NwChem

@<TRIPOS>ATOM
      1 C           0.6351   -0.9665   -1.2597 C.3     1  LIG1      -0.5199999999999996
      2 C           0.1388   -0.2006   -0.0613 C.2     1  LIG1       0.23000000000000043
      3 C          -0.7681    1.0735   -0.2939 C.2     1  LIG1       0.5099999999999998
      4 N           0.4152   -0.5304    1.1458 N.2     1  LIG1      -0.29000000000000004
      5 O          -1.1422    1.6818    0.7280 O.co2   1  LIG1      -0.6600000000000001
      6 O          -0.9909    1.3011   -1.5112 O.co2   1  LIG1      -0.6600000000000001
      7 O           1.2551   -1.7207    1.1769 O.2     1  LIG1      -0.5500000000000007
      8 H           0.2478   -0.4772   -2.1544 H       1  LIG1       0.16000000000000003
      9 H           0.3043   -2.0128   -1.2158 H       1  LIG1       0.17000000000000004
     10 H           1.7332   -0.9908   -1.2752 H       1  LIG1       0.17000000000000004
     11 H           1.3610   -1.8186    2.1347 H       1  LIG1       0.43999999999999995
@<TRIPOS>BOND
     1     8     1    1
     2     6     3   ar
     3    10     1    1
     4     1     9    1
     5     1     2    1
     6     3     2    1
     7     3     5   ar
     8     2     4    2
     9     4     7    1
    10     7    11    1
