@<TRIPOS>MOLECULE
MVMSCBBUIHUTGJ-GDJBGNAASA-L	11095248	-2783.665609017148
 62 65 0 0 0
SMALL
MULLIKEN NwChem

@<TRIPOS>ATOM
      1 C           5.7940    3.5982   -0.0898 C.3     1  LIG1       -0.040000000000000036
      2 C          -1.0566   -1.9326    1.1697 C.3     1  LIG1       -0.08000000000000007
      3 C          -5.8075   -1.0368   -2.2502 C.ar    1  LIG1       0.17999999999999972
      4 C           4.9933    2.3163    0.0786 C.3     1  LIG1       0.08000000000000007
      5 C          -1.5210   -1.2961   -0.1508 C.3     1  LIG1       0.09999999999999964
      6 C          -6.8868   -0.3713   -0.5146 C.ar    1  LIG1       0.08999999999999986
      7 C           5.3560    1.5318    1.3427 C.3     1  LIG1       0.15000000000000036
      8 C          -1.6625    0.2409   -0.1691 C.3     1  LIG1       0.09999999999999964
      9 C           4.5878    0.2197    1.3112 C.3     1  LIG1       0.019999999999999574
     10 C          -2.7040    0.4817   -1.2801 C.3     1  LIG1       0.07000000000000028
     11 C           4.9837   -0.5754    0.0642 C.3     1  LIG1       0.08000000000000007
     12 C          -5.5642   -0.4353   -0.1445 C.ar    1  LIG1       0.5599999999999996
     13 C          -7.8834    0.1018    0.4841 C.ar    1  LIG1       0.4900000000000002
     14 C          -3.4287   -0.8896   -1.3991 C.3     1  LIG1          0.25
     15 C           4.6995    0.2728   -1.1741 C.3     1  LIG1       0.33000000000000007
     16 C          -6.0831    0.2325    2.0841 C.ar    1  LIG1       0.5599999999999996
     17 N          -5.5722    0.3315    3.2808 N.pl3   1  LIG1      -0.7999999999999998
     18 N          -7.0181   -0.7573   -1.8466 N.ar    1  LIG1      -0.5800000000000001
     19 N          -5.0825   -0.0550    1.0758 N.ar    1  LIG1      -0.7199999999999998
     20 N          -7.3845    0.3804    1.7321 N.ar    1  LIG1      -0.6699999999999999
     21 N          -4.8502   -0.8567   -1.2461 N.ar    1  LIG1      -0.5099999999999998
     22 O           5.4416    4.2812   -1.2857 O.3     1  LIG1      -0.6699999999999999
     23 O           5.0013    2.3053    2.4841 O.3     1  LIG1      -0.6899999999999995
     24 O          -0.4741    0.9664   -0.4446 O.3     1  LIG1      -0.7200000000000006
     25 O           4.8855   -0.5259    2.4904 O.3     1  LIG1      -0.7100000000000009
     26 O          -2.0951    0.7487   -2.5347 O.3     1  LIG1      -0.6699999999999999
     27 O           6.3716   -0.9014    0.1043 O.3     1  LIG1      -0.6799999999999997
     28 O          -9.0825    0.2297    0.1881 O.2     1  LIG1      -0.6600000000000001
     29 O           1.1503   -0.0143    1.2900 O.2     1  LIG1      -0.7300000000000004
     30 O           2.7000   -2.0587    1.8297 O.3     1  LIG1      -0.6600000000000001
     31 O           1.0518   -0.0316   -2.3676 O.3     1  LIG1      -0.6999999999999993
     32 O           3.0489   -1.5924   -2.8828 O.2     1  LIG1      -0.6099999999999994
     33 O           0.2799   -2.4453    1.1384 O.3     1  LIG1      -0.5500000000000007
     34 O          -2.8650   -1.7338   -0.3882 O.3     1  LIG1      -0.5399999999999991
     35 O           5.2884    1.5398   -1.1051 O.3     1  LIG1      -0.5299999999999994
     36 O           3.2673    0.4389   -1.2801 O.3     1  LIG1      -0.5800000000000001
     37 O           1.9032   -1.6494   -0.5827 O.3     1  LIG1      -0.6600000000000001
     38 P           1.5679   -1.4518    1.0570 P.3     1  LIG1       1.2899999999999991
     39 P           2.3531   -0.7809   -1.8609 P.3     1  LIG1       1.2300000000000004
     40 H           5.5868    4.2647    0.7525 H       1  LIG1       0.17000000000000004
     41 H           6.8685    3.3449   -0.0758 H       1  LIG1          0.14
     42 H          -1.1678   -1.2245    1.9991 H       1  LIG1       0.18999999999999995
     43 H          -1.6918   -2.8004    1.3633 H       1  LIG1       0.18999999999999995
     44 H          -5.5110   -1.3855   -3.2320 H       1  LIG1       0.19999999999999996
     45 H           3.9222    2.5530    0.0971 H       1  LIG1       0.16000000000000003
     46 H          -0.8584   -1.6190   -0.9678 H       1  LIG1       0.18000000000000005
     47 H           6.4366    1.3213    1.3371 H       1  LIG1          0.14
     48 H          -2.0848    0.5650    0.7913 H       1  LIG1       0.18000000000000005
     49 H           3.5205    0.4592    1.2778 H       1  LIG1       0.17000000000000004
     50 H          -3.4126    1.2725   -1.0049 H       1  LIG1       0.18000000000000005
     51 H           4.3847   -1.4913    0.0152 H       1  LIG1       0.17000000000000004
     52 H          -3.2082   -1.2882   -2.3981 H       1  LIG1       0.18999999999999995
     53 H           5.0810   -0.1971   -2.0833 H       1  LIG1       0.18999999999999995
     54 H          -6.3609    0.5343    3.9004 H       1  LIG1          0.27
     55 H          -4.2471   -0.4986    1.4354 H       1  LIG1          0.36
     56 H           5.3624    3.5809   -1.9562 H       1  LIG1       0.42000000000000004
     57 H           4.8105    1.6443    3.1726 H       1  LIG1       0.43000000000000005
     58 H           0.1783    0.7524    0.2981 H       1  LIG1          0.47
     59 H           4.1416   -1.1784    2.5246 H       1  LIG1       0.44999999999999996
     60 H          -1.3958    1.4026   -2.3685 H       1  LIG1       0.43999999999999995
     61 H           6.5050   -1.1958    1.0234 H       1  LIG1       0.43000000000000005
     62 H           0.4512    0.3322   -1.6496 H       1  LIG1           0.49
@<TRIPOS>BOND
     1    44     3    1
     2    32    39    2
     3    26    60    1
     4    26    10    1
     5    52    14    1
     6    31    39    1
     7    31    62    1
     8     3    18   ar
     9     3    21   ar
    10    53    15    1
    11    56    22    1
    12    39    36    1
    13    39    37    1
    14    18     6   ar
    15    14    10    1
    16    14    21    1
    17    14    34    1
    18    22     1    1
    19    36    15    1
    20    10    50    1
    21    10     8    1
    22    21    12   ar
    23    15    35    1
    24    15    11    1
    25    35     4    1
    26    46     5    1
    27    37    38    1
    28     6    12   ar
    29     6    13   ar
    30    24     8    1
    31    24    58    1
    32    34     5    1
    33     8     5    1
    34     8    48    1
    35     5     2    1
    36    12    19   ar
    37     1    41    1
    38     1     4    1
    39     1    40    1
    40    51    11    1
    41    11    27    1
    42    11     9    1
    43     4    45    1
    44     4     7    1
    45    27    61    1
    46    28    13    2
    47    13    20   ar
    48    38    33    1
    49    38    29    2
    50    38    30    1
    51    19    55    1
    52    19    16   ar
    53    33     2    1
    54     2    43    1
    55     2    42    1
    56    49     9    1
    57     9     7    1
    58     9    25    1
    59    47     7    1
    60     7    23    1
    61    20    16   ar
    62    16    17    1
    63    23    57    1
    64    25    59    1
    65    17    54    1
