@<TRIPOS>MOLECULE
MWFMGBPGAXYFAR-UHFFFAOYSA-N	6044894	-286.527098493422
 13 12 0 0 0
SMALL
MULLIKEN NwChem

@<TRIPOS>ATOM
      1 C           0.8393    0.1710    1.4341 C.3     1  LIG1      -0.45999999999999996
      2 C           0.8198   -1.2628   -0.6650 C.3     1  LIG1      -0.46999999999999975
      3 C          -1.1884   -0.0138    0.0333 C.1     1  LIG1       0.3600000000000003
      4 C           0.3013    0.0191    0.0074 C.3     1  LIG1       0.2400000000000002
      5 N          -2.3488   -0.0386    0.0157 N.1     1  LIG1        -0.54
      6 O           0.7383    1.1802   -0.6967 O.3     1  LIG1      -0.6500000000000004
      7 H           0.5339   -0.6741    2.0573 H       1  LIG1       0.18000000000000005
      8 H           0.4691    1.0983    1.8786 H       1  LIG1       0.18000000000000005
      9 H           1.9318    0.2127    1.3912 H       1  LIG1       0.18000000000000005
     10 H           0.5092   -2.1546   -0.1119 H       1  LIG1       0.18000000000000005
     11 H           0.4375   -1.3461   -1.6885 H       1  LIG1       0.18000000000000005
     12 H           1.9127   -1.2218   -0.6986 H       1  LIG1       0.18000000000000005
     13 H           0.4193    1.1198   -1.6123 H       1  LIG1       0.43999999999999995
@<TRIPOS>BOND
     1    11     2    1
     2    13     6    1
     3    12     2    1
     4     6     4    1
     5     2    10    1
     6     2     4    1
     7     4     3    1
     8     4     1    1
     9     5     3    3
    10     9     1    1
    11     1     8    1
    12     1     7    1
