@<TRIPOS>MOLECULE
MWWQKONGFKUAEK-NNRGKNABSA-M	11095246	-1753.3559236096246
 62 64 0 0 0
SMALL
MULLIKEN NwChem

@<TRIPOS>ATOM
      1 C          -3.1922   -1.6295   -2.4641 C.3     1  LIG1      -0.46999999999999975
      2 C           4.0601    1.1691   -2.2022 C.3     1  LIG1       -0.5300000000000002
      3 C          -5.2180    1.0229    3.2491 C.3     1  LIG1         -0.54
      4 C           2.1359   -1.7722    4.0201 C.3     1  LIG1       -0.04999999999999982
      5 C          -1.2741    2.9854   -1.8390 C.3     1  LIG1       -0.05999999999999961
      6 C          -2.1148   -0.6098   -2.1292 C.3     1  LIG1       0.05999999999999961
      7 C           2.7519    0.4050   -2.3236 C.2     1  LIG1           0.5
      8 C          -4.6669    1.1625    1.8530 C.2     1  LIG1       0.5199999999999996
      9 C           2.0412   -1.6690    2.4959 C.3     1  LIG1       0.08999999999999986
     10 C          -0.5993    2.6764   -0.4958 C.3     1  LIG1       0.019999999999999574
     11 C           2.5399   -0.2945   -0.0379 C.3     1  LIG1       -0.03000000000000025
     12 C          -2.9613    1.1841    0.2259 C.3     1  LIG1       -0.009999999999999787
     13 C           3.4066   -1.7751    1.8091 C.3     1  LIG1       0.13999999999999968
     14 C           3.2575   -1.6086    0.3003 C.3     1  LIG1       0.07000000000000028
     15 C          -0.3577    1.1812   -0.3089 C.3     1  LIG1       0.09999999999999964
     16 C          -1.6352    0.3683    0.0788 C.3     1  LIG1       0.08000000000000007
     17 C          -0.8317   -0.8280   -2.9958 C.2     1  LIG1       0.5800000000000001
     18 C          -2.7769    2.6769   -0.1207 C.3     1  LIG1       0.3200000000000003
     19 C           1.2367   -0.2113    0.8027 C.3     1  LIG1       0.3799999999999999
     20 N           2.1381   -0.2544   -1.4137 N.2     1  LIG1      -0.5099999999999998
     21 N          -3.4316    1.0598    1.6079 N.2     1  LIG1         -0.5
     22 O           2.5037   -3.0703    4.4583 O.3     1  LIG1      -0.6899999999999995
     23 O           2.2491    0.5155   -3.5443 O.2     1  LIG1      -0.6699999999999999
     24 O          -5.6060    1.4119    0.8681 O.2     1  LIG1      -0.6300000000000008
     25 O           4.0169   -3.0317    2.1129 O.3     1  LIG1      -0.6899999999999995
     26 O           4.5486   -1.7509   -0.3166 O.3     1  LIG1      -0.6699999999999999
     27 O          -0.4797   -1.9856   -3.2410 O.co2   1  LIG1      -0.6199999999999992
     28 O          -0.2554    0.2661   -3.3639 O.co2   1  LIG1      -0.6500000000000004
     29 O          -2.6741    2.8272   -1.5348 O.3     1  LIG1      -0.5299999999999994
     30 O          -1.8052   -0.7939   -0.7221 O.3     1  LIG1      -0.5399999999999991
     31 O           1.4886   -0.3973    2.1942 O.3     1  LIG1      -0.5399999999999991
     32 O          -1.5822    3.1771    0.4331 O.3     1  LIG1      -0.5099999999999998
     33 O           0.6600    1.0585    0.7108 O.3     1  LIG1      -0.5600000000000005
     34 H          -3.4989   -1.5309   -3.5124 H       1  LIG1       0.15000000000000002
     35 H          -4.0688   -1.4948   -1.8189 H       1  LIG1       0.15000000000000002
     36 H          -2.7797   -2.6326   -2.3247 H       1  LIG1       0.15000000000000002
     37 H           4.6688    0.9688   -3.0892 H       1  LIG1       0.18000000000000005
     38 H           4.6324    0.9026   -1.3109 H       1  LIG1       0.17000000000000004
     39 H           3.8571    2.2466   -2.1773 H       1  LIG1       0.18999999999999995
     40 H          -5.9368    0.1935    3.3033 H       1  LIG1       0.19999999999999996
     41 H          -4.3991    0.8262    3.9417 H       1  LIG1       0.18000000000000005
     42 H          -5.7401    1.9386    3.5586 H       1  LIG1       0.18999999999999995
     43 H           2.8367   -0.9982    4.3801 H       1  LIG1          0.14
     44 H           1.1526   -1.5475    4.4450 H       1  LIG1       0.16000000000000003
     45 H          -1.0871    4.0246   -2.1431 H       1  LIG1       0.16000000000000003
     46 H          -0.9887    2.2879   -2.6323 H       1  LIG1       0.18000000000000005
     47 H          -2.4826    0.4096   -2.2926 H       1  LIG1       0.15000000000000002
     48 H           1.3941   -2.4835    2.1287 H       1  LIG1       0.15000000000000002
     49 H           0.3308    3.2236   -0.3297 H       1  LIG1       0.18000000000000005
     50 H           3.1725    0.5494    0.2980 H       1  LIG1       0.15000000000000002
     51 H          -3.6983    0.7849   -0.4779 H       1  LIG1       0.17000000000000004
     52 H           4.0336   -0.9505    2.1962 H       1  LIG1          0.14
     53 H           2.6683   -2.4420   -0.0974 H       1  LIG1       0.16000000000000003
     54 H           0.0349    0.7830   -1.2433 H       1  LIG1       0.21999999999999997
     55 H          -1.4387   -0.0219    1.0805 H       1  LIG1       0.17000000000000004
     56 H          -3.6144    3.2769    0.2515 H       1  LIG1       0.16000000000000003
     57 H           0.5496   -0.9917    0.4389 H       1  LIG1          0.14
     58 H           3.2440   -3.3529    3.8924 H       1  LIG1       0.43000000000000005
     59 H          -6.4944    1.3778    1.2544 H       1  LIG1       0.45999999999999996
     60 H           4.6786   -3.1681    1.4119 H       1  LIG1       0.43000000000000005
     61 H           5.0433   -0.9377   -0.1229 H       1  LIG1       0.43999999999999995
     62 H           1.2298    0.2430   -3.5335 H       1  LIG1       0.43000000000000005
@<TRIPOS>BOND
     1    23    62    1
     2    23     7    1
     3    34     1    1
     4    28    17   ar
     5    27    17   ar
     6    37     2    1
     7    17     6    1
     8    46     5    1
     9     1    36    1
    10     1     6    1
    11     1    35    1
    12     7     2    1
    13     7    20    2
    14    47     6    1
    15     2    39    1
    16     2    38    1
    17    45     5    1
    18     6    30    1
    19     5    29    1
    20     5    10    1
    21    29    18    1
    22    20    11    1
    23    54    15    1
    24    30    16    1
    25    10    49    1
    26    10    15    1
    27    10    32    1
    28    51    12    1
    29    26    61    1
    30    26    14    1
    31    15    16    1
    32    15    33    1
    33    18    12    1
    34    18    56    1
    35    18    32    1
    36    53    14    1
    37    11    50    1
    38    11    14    1
    39    11    19    1
    40    16    12    1
    41    16    55    1
    42    12    21    1
    43    14    13    1
    44    57    19    1
    45    33    19    1
    46    19    31    1
    47    24    59    1
    48    24     8    1
    49    60    25    1
    50    21     8    2
    51    13    25    1
    52    13    52    1
    53    13     9    1
    54     8     3    1
    55    48     9    1
    56    31     9    1
    57     9     4    1
    58     3    40    1
    59     3    42    1
    60     3    41    1
    61    58    22    1
    62     4    43    1
    63     4    44    1
    64     4    22    1
