@<TRIPOS>MOLECULE
MXHRCPNRJAMMIM-SHYZEUOFSA-N	6044899	-835.6361939651922
 28 29 0 0 0
SMALL
MULLIKEN NwChem

@<TRIPOS>ATOM
      1 C5         -1.2884    0.7619   -2.4412 C.ar    1    U1             -0.25
      2 C6         -1.1455    0.2157   -1.1993 C.ar    1    U1       0.1200000000000001
      3 C2*         1.3110   -0.2979    1.3303 C.3     1    U1       -0.33999999999999986
      4 C5*        -1.2685    1.3267    2.1574 C.3     1    U1       -0.07000000000000028
      5 C3*         0.6997   -0.2274    2.7384 C.3     1    U1       0.11000000000000032
      6 C4*        -0.7947   -0.1071    2.4244 C.3     1    U1       0.08000000000000007
      7 C4         -0.1597    0.6377   -3.2991 C.ar    1    U1       0.5599999999999996
      8 C1*         0.2151   -1.0028    0.5015 C.3     1    U1       0.2999999999999998
      9 C2          1.1144   -0.5225   -1.7418 C.ar    1    U1       0.7300000000000004
     10 N3          0.9627    0.0394   -2.9856 N.ar    1    U1      -0.6100000000000003
     11 N1          0.0154   -0.3807   -0.8325 N.ar    1    U1         -0.5
     12 O5*        -1.0978    2.1577    3.2947 O.3     1    U1      -0.6600000000000001
     13 O3*         0.9823   -1.3787    3.5249 O.3     1    U1      -0.6699999999999999
     14 O4         -0.2660    1.1741   -4.5266 O.3     1    U1      -0.6199999999999992
     15 O2          2.1095   -1.1226   -1.3592 O.2     1    U1      -0.5899999999999999
     16 O4*        -0.9850   -0.9392    1.2563 O.3     1    U1      -0.5399999999999991
     17 H5         -2.1990    1.2468   -2.7641 H       1    U1       0.18999999999999995
     18 H6         -1.9295    0.2166   -0.4535 H       1    U1       0.22999999999999998
     19 H2*1        1.4960    0.7026    0.9280 H       1    U1       0.18999999999999995
     20 H2*2        2.2528   -0.8446    1.3129 H       1    U1       0.18999999999999995
     21 H5*1       -0.6707    1.7802    1.3599 H       1    U1       0.17000000000000004
     22 H5*2       -2.3139    1.3011    1.8110 H       1    U1       0.16000000000000003
     23 H3*         1.0560    0.6263    3.3179 H       1    U1       0.17000000000000004
     24 H4*        -1.3928   -0.5518    3.2283 H       1    U1       0.17000000000000004
     25 H1*         0.4548   -2.0524    0.3101 H       1    U1       0.18999999999999995
     26 H5*        -1.6933    1.8416    3.9924 H       1    U1       0.43000000000000005
     27 H3*         0.6344   -2.1530    3.0530 H       1    U1       0.43000000000000005
     28 H4          0.5827    0.9908   -4.9726 H       1    U1       0.44999999999999996
@<TRIPOS>BOND
     1    28    14    1
     2    14     7    1
     3     7    10   ar
     4     7     1   ar
     5    10     9   ar
     6    17     1    1
     7     1     2   ar
     8     9    15    2
     9     9    11   ar
    10     2    11   ar
    11     2    18    1
    12    11     8    1
    13    25     8    1
    14     8    16    1
    15     8     3    1
    16    19     3    1
    17    16     6    1
    18    20     3    1
    19     3     5    1
    20    21     4    1
    21    22     4    1
    22     4     6    1
    23     4    12    1
    24     6     5    1
    25     6    24    1
    26     5    23    1
    27     5    13    1
    28    27    13    1
    29    12    26    1
