@<TRIPOS>MOLECULE
MXNRLFUSFKVQSK-QMMMGPOBSA-O	6044900	-615.1680383973342
 34 33 0 0 0
SMALL
MULLIKEN NwChem

@<TRIPOS>ATOM
      1 C1         -0.3711    1.2631    2.6497 C.3     1  <1>       -0.34999999999999964
      2 C2         -0.7523   -0.8385    3.8392 C.3     1  <1>       -0.33999999999999986
      3 C3         -2.5959    0.2140    2.6079 C.3     1  <1>       -0.33999999999999986
      4 C4         -0.7989    0.7881   -0.6677 C.3     1  <1>       -0.29000000000000004
      5 C5         -1.2782   -0.5079    0.0103 C.3     1  <1>       -0.3099999999999996
      6 C6          0.7251    0.9692   -0.7425 C.3     1  <1>       -0.28000000000000025
      7 C7         -0.7042   -0.8924    1.3760 C.3     1  <1>       -0.16000000000000014
      8 C8          1.5239   -0.1791   -1.4038 C.3     1  <1>        -0.05999999999999961
      9 C9          1.0809   -0.3380   -2.8612 C.2     1  <1>        0.5899999999999999
     10 N1          2.9445    0.1072   -1.2600 N.3     1  <1>         -0.75
     11 N2         -1.1134   -0.0497    2.6026 N.4     1  <1>        -0.3600000000000003
     12 O1          1.6093    0.2082   -3.7992 O.2     1  <1>       -0.5099999999999998
     13 O2         -0.0068   -1.1454   -2.9776 O.3     1  <1>       -0.5800000000000001
     14 H1         -0.6798    1.8052    3.5452 H       1  <1>        0.21999999999999997
     15 H2         -0.6106    1.8442    1.7631 H       1  <1>        0.21999999999999997
     16 H3          0.6998    1.0613    2.6880 H       1  <1>        0.22999999999999998
     17 H4         -0.9680   -0.2346    4.7223 H       1  <1>        0.21999999999999997
     18 H5         -1.3431   -1.7552    3.8623 H       1  <1>        0.21999999999999997
     19 H6          0.3110   -1.0810    3.8035 H       1  <1>        0.21999999999999997
     20 H7         -2.8471    0.8754    1.7796 H       1  <1>        0.22999999999999998
     21 H8         -3.1250   -0.7346    2.5043 H       1  <1>        0.21999999999999997
     22 H9         -2.8621    0.6891    3.5535 H       1  <1>        0.21999999999999997
     23 H10        -1.2168    0.7797   -1.6794 H       1  <1>        0.16000000000000003
     24 H11        -1.2389    1.6706   -0.1846 H       1  <1>        0.17000000000000004
     25 H12        -1.0008   -1.3473   -0.6382 H       1  <1>        0.18999999999999995
     26 H13        -2.3731   -0.5315    0.0423 H       1  <1>        0.18000000000000005
     27 H14         0.9411    1.8925   -1.2944 H       1  <1>        0.16000000000000003
     28 H15         1.1651    1.1057    0.2519 H       1  <1>        0.16000000000000003
     29 H16         0.3886   -0.8823    1.3734 H       1  <1>        0.20999999999999996
     30 H17        -1.0316   -1.9059    1.6211 H       1  <1>        0.21999999999999997
     31 H18         1.3133   -1.1225   -0.8867 H       1  <1>        0.18000000000000005
     32 H19         3.4923   -0.6842   -1.5953 H       1  <1>        0.32999999999999996
     33 H20         3.1862    0.8820   -1.8791 H       1  <1>        0.31999999999999995
     34 H21        -0.2372   -1.1843   -3.9269 H       1  <1>        0.44999999999999996
@<TRIPOS>BOND
     1    34    13    1
     2    12     9    2
     3    13     9    1
     4     9     8    1
     5    33    10    1
     6    23     4    1
     7    32    10    1
     8     8    10    1
     9     8    31    1
    10     8     6    1
    11    27     6    1
    12     6     4    1
    13     6    28    1
    14     4    24    1
    15     4     5    1
    16    25     5    1
    17     5    26    1
    18     5     7    1
    19    29     7    1
    20     7    30    1
    21     7    11    1
    22    15     1    1
    23    20     3    1
    24    21     3    1
    25    11     3    1
    26    11     1    1
    27    11     2    1
    28     3    22    1
    29     1    16    1
    30     1    14    1
    31    19     2    1
    32     2    18    1
    33     2    17    1
