@<TRIPOS>MOLECULE
MYJNEEHZESREMO-UHFFFAOYSA-N	6044901	-601.6222339638242
 18 19 0 0 0
SMALL
MULLIKEN NwChem

@<TRIPOS>ATOM
      1 C           2.7297   -0.5980    0.0033 C.2     1  LIG1       0.040000000000000036
      2 C           2.8293    0.9172   -0.0266 C.3     1  LIG1       -0.13999999999999968
      3 C           0.4349   -0.6124    0.0020 C.ar    1  LIG1       0.1900000000000004
      4 C           0.3544    0.8020    0.0026 C.ar    1  LIG1       0.5599999999999996
      5 C          -0.7958   -1.2719   -0.0027 C.ar    1  LIG1           0.5
      6 C          -1.8908    0.7170   -0.0027 C.ar    1  LIG1       0.6500000000000004
      7 N           1.6577   -1.2930    0.0129 N.2     1  LIG1         -0.5
      8 N           1.5045    1.5192    0.0114 N.pl3   1  LIG1      -0.6699999999999999
      9 N          -0.8029    1.4810    0.0014 N.ar    1  LIG1      -0.5999999999999996
     10 N          -1.9681   -0.6191   -0.0060 N.ar    1  LIG1      -0.6100000000000003
     11 O          -0.8423   -2.6130   -0.0054 O.3     1  LIG1      -0.6300000000000008
     12 O          -3.0593    1.3844   -0.0048 O.3     1  LIG1      -0.6199999999999992
     13 H           3.6824   -1.1305    0.0122 H       1  LIG1       0.18000000000000005
     14 H           3.3770    1.2267   -0.9331 H       1  LIG1       0.18999999999999995
     15 H           3.4347    1.2586    0.8289 H       1  LIG1       0.19999999999999996
     16 H           1.4027    2.5249    0.0038 H       1  LIG1          0.37
     17 H          -1.7881   -2.8459   -0.0110 H       1  LIG1       0.44999999999999996
     18 H          -3.7561    0.7054   -0.0082 H       1  LIG1       0.44999999999999996
@<TRIPOS>BOND
     1    14     2    1
     2     2     1    1
     3     2     8    1
     4     2    15    1
     5    17    11    1
     6    18    12    1
     7    10     6   ar
     8    10     5   ar
     9    11     5    1
    10    12     6    1
    11     6     9   ar
    12     5     3   ar
    13     9     4   ar
    14     3     4   ar
    15     3     7    1
    16     4     8    1
    17     1    13    1
    18     1     7    2
    19    16     8    1
