@<TRIPOS>MOLECULE
MYMOFIZGZYHOMD-UHFFFAOYSA-N	6044903	-150.2695365475416
 2 1 0 0 0
SMALL
MULLIKEN NwChem

@<TRIPOS>ATOM
      1 O          -0.6080    0.0000   -0.0000 O.2     1  LIG1               0.0
      2 O           0.6080   -0.0000    0.0000 O.2     1  LIG1            0.0
@<TRIPOS>BOND
     1     1     2    2
