@<TRIPOS>MOLECULE
MYWAIWDQTCHPTH-LJAIZBFVSA-M	6044904	-1357.4142778366065
 77 80 0 0 0
SMALL
MULLIKEN NwChem

@<TRIPOS>ATOM
      1 C           0.9303   -1.0466   -5.2335 C.3     1  LIG1      -0.5300000000000002
      2 C           1.9314   -3.3483   -4.8476 C.3     1  LIG1      -0.5199999999999996
      3 C           5.2521    1.2964   -2.0137 C.3     1  LIG1      -0.4800000000000004
      4 C           2.3979    2.4062   -0.7735 C.3     1  LIG1      -0.4900000000000002
      5 C          -2.1268   -1.7862    1.3799 C.3     1  LIG1      -0.4800000000000004
      6 C          -3.6277    1.4750    4.3465 C.3     1  LIG1      -0.46999999999999975
      7 C           3.7790    0.1188   -4.9645 C.3     1  LIG1      -0.3200000000000003
      8 C           3.4105   -1.3490   -4.9087 C.2     1  LIG1      -0.20000000000000018
      9 C           3.3871    0.8840   -3.6812 C.3     1  LIG1      -0.28000000000000025
     10 C           0.3641    0.7679    2.8703 C.3     1  LIG1      -0.34999999999999964
     11 C           3.8314   -0.6339   -0.0265 C.3     1  LIG1      -0.29000000000000004
     12 C           2.7008   -0.7991    0.9853 C.3     1  LIG1      -0.28000000000000025
     13 C          -0.9528    0.2892    3.4881 C.3     1  LIG1      -0.2699999999999996
     14 C          -0.1909   -0.4046   -0.7786 C.3     1  LIG1      -0.3600000000000003
     15 C          -4.4224    0.2408    0.7471 C.3     1  LIG1      -0.28000000000000025
     16 C           0.6545    0.7136   -1.4041 C.3     1  LIG1      -0.3099999999999996
     17 C          -2.9931    0.2748    0.1897 C.3     1  LIG1      -0.2999999999999998
     18 C           2.1763   -1.8671   -5.0016 C.2     1  LIG1      0.17999999999999972
     19 C           4.0941    0.3583   -2.4008 C.3     1  LIG1      -0.04999999999999982
     20 C           0.5007    0.4125    1.4094 C.2     1  LIG1      0.11000000000000032
     21 C           3.1159   -0.0617   -1.2649 C.3     1  LIG1      -0.1299999999999999
     22 C           1.8982    0.5172    0.8372 C.3     1  LIG1      -0.20000000000000018
     23 C          -0.5169   -0.0490    0.6619 C.2     1  LIG1      0.07000000000000028
     24 C          -2.1116    0.5683    2.5205 C.3     1  LIG1      -0.1299999999999999
     25 C          -4.5576    1.0005    2.0681 C.3     1  LIG1       0.13999999999999968
     26 C          -3.9205   -0.9298    3.6848 C.2     1  LIG1       0.5599999999999996
     27 C           2.0173    0.9190   -0.6897 C.3     1  LIG1      0.15000000000000036
     28 C          -1.9383   -0.2571    1.1989 C.3     1  LIG1      0.04999999999999982
     29 C          -3.5439    0.5225    3.1374 C.3     1  LIG1       -0.009999999999999787
     30 O          -4.4828    2.4296    1.8251 O.3     1  LIG1      -0.6999999999999993
     31 O          -3.1334   -1.3753    4.5546 O.co2   1  LIG1      -0.6699999999999999
     32 O          -4.9530   -1.4663    3.2059 O.co2   1  LIG1      -0.6699999999999999
     33 H           0.3240   -1.4798   -6.0411 H       1  LIG1       0.16000000000000003
     34 H           1.1423   -0.0059   -5.4917 H       1  LIG1       0.16000000000000003
     35 H           0.2978   -1.0442   -4.3347 H       1  LIG1       0.17000000000000004
     36 H           2.8600   -3.9038   -4.6790 H       1  LIG1       0.16000000000000003
     37 H           1.2594   -3.5461   -4.0007 H       1  LIG1       0.16000000000000003
     38 H           1.4398   -3.7646   -5.7385 H       1  LIG1       0.16000000000000003
     39 H           4.9044    2.2969   -1.7437 H       1  LIG1       0.15000000000000002
     40 H           5.8409    0.9053   -1.1777 H       1  LIG1          0.14
     41 H           5.9326    1.4069   -2.8685 H       1  LIG1          0.14
     42 H           3.3593    2.6087   -0.2898 H       1  LIG1       0.15000000000000002
     43 H           2.4546    2.7582   -1.8103 H       1  LIG1       0.15000000000000002
     44 H           1.6381    3.0064   -0.2579 H       1  LIG1          0.14
     45 H          -1.4379   -2.1799    2.1312 H       1  LIG1          0.14
     46 H          -3.1389   -2.0423    1.6966 H       1  LIG1       0.15000000000000002
     47 H          -1.9192   -2.2955    0.4282 H       1  LIG1          0.14
     48 H          -4.6775    1.6200    4.6297 H       1  LIG1          0.13
     49 H          -3.1065    1.0354    5.1995 H       1  LIG1       0.15000000000000002
     50 H          -3.2090    2.4670    4.1276 H       1  LIG1          0.13
     51 H           4.8611    0.2125   -5.1272 H       1  LIG1          0.14
     52 H           3.2984    0.6040   -5.8256 H       1  LIG1          0.14
     53 H           4.2303   -2.0426   -4.7223 H       1  LIG1          0.13
     54 H           3.6098    1.9508   -3.8202 H       1  LIG1          0.13
     55 H           2.3040    0.8162   -3.5715 H       1  LIG1       0.15000000000000002
     56 H           0.4575    1.8638    2.9745 H       1  LIG1          0.14
     57 H           1.2211    0.3531    3.4250 H       1  LIG1          0.14
     58 H           4.5644    0.0845    0.3643 H       1  LIG1          0.14
     59 H           4.3721   -1.5623   -0.2517 H       1  LIG1          0.13
     60 H           2.0684   -1.6540    0.7167 H       1  LIG1          0.14
     61 H           3.0423   -0.9592    2.0140 H       1  LIG1          0.13
     62 H          -1.1167    0.7984    4.4410 H       1  LIG1          0.12
     63 H          -0.9249   -0.7754    3.7264 H       1  LIG1          0.14
     64 H          -1.0965   -0.5505   -1.3729 H       1  LIG1          0.14
     65 H           0.3567   -1.3588   -0.8319 H       1  LIG1       0.15000000000000002
     66 H          -5.1106    0.6843    0.0145 H       1  LIG1          0.12
     67 H          -4.7403   -0.7869    0.9365 H       1  LIG1          0.14
     68 H           0.0687    1.6394   -1.3420 H       1  LIG1          0.12
     69 H           0.8107    0.5159   -2.4703 H       1  LIG1       0.15000000000000002
     70 H          -2.9653   -0.3053   -0.7415 H       1  LIG1          0.14
     71 H          -2.7273    1.3086   -0.0852 H       1  LIG1          0.12
     72 H           4.5758   -0.5929   -2.6726 H       1  LIG1          0.12
     73 H           2.5522   -0.9021   -1.6992 H       1  LIG1          0.12
     74 H           2.4432    1.2782    1.4159 H       1  LIG1          0.12
     75 H          -1.9588    1.6212    2.1997 H       1  LIG1       0.09999999999999998
     76 H          -5.5617    0.8371    2.4657 H       1  LIG1       0.10999999999999999
     77 H          -3.5481    2.6358    1.6717 H       1  LIG1       0.42000000000000004
@<TRIPOS>BOND
     1    33     1    1
     2    52     7    1
     3    38     2    1
     4    34     1    1
     5     1    18    1
     6     1    35    1
     7    51     7    1
     8    18     8    2
     9    18     2    1
    10     7     8    1
    11     7     9    1
    12     8    53    1
    13     2    36    1
    14     2    37    1
    15    54     9    1
    16     9    55    1
    17     9    19    1
    18    41     3    1
    19    72    19    1
    20    69    16    1
    21    19     3    1
    22    19    21    1
    23     3    39    1
    24     3    40    1
    25    43     4    1
    26    73    21    1
    27    16    68    1
    28    16    14    1
    29    16    27    1
    30    64    14    1
    31    21    27    1
    32    21    11    1
    33    65    14    1
    34    14    23    1
    35     4    27    1
    36     4    42    1
    37     4    44    1
    38    70    17    1
    39    27    22    1
    40    59    11    1
    41    71    17    1
    42    11    58    1
    43    11    12    1
    44    66    15    1
    45    17    15    1
    46    17    28    1
    47    47     5    1
    48    23    28    1
    49    23    20    2
    50    60    12    1
    51    15    67    1
    52    15    25    1
    53    22    12    1
    54    22    20    1
    55    22    74    1
    56    12    61    1
    57    28     5    1
    58    28    24    1
    59     5    46    1
    60     5    45    1
    61    20    10    1
    62    77    30    1
    63    30    25    1
    64    25    76    1
    65    25    29    1
    66    75    24    1
    67    24    29    1
    68    24    13    1
    69    10    56    1
    70    10    57    1
    71    10    13    1
    72    29    26    1
    73    29     6    1
    74    32    26   ar
    75    13    63    1
    76    13    62    1
    77    26    31   ar
    78    50     6    1
    79     6    48    1
    80     6    49    1
