@<TRIPOS>MOLECULE
MZJFVXDTNBHTKZ-UWTATZPHSA-K	6044905	-1098.407669218806
 17 16 0 0 0
SMALL
MULLIKEN NwChem

@<TRIPOS>ATOM
      1 C           0.6847    0.0183   -0.6404 C.3     1  LIG1       -0.040000000000000036
      2 C           0.1329   -0.3505    0.8086 C.3     1  LIG1       0.040000000000000036
      3 C           1.2380   -1.0331    1.6209 C.2     1  LIG1       0.34999999999999964
      4 C           2.4781   -0.2013    2.0509 C.2     1  LIG1       0.46999999999999975
      5 O          -1.0192   -1.1469    0.7450 O.3     1  LIG1      -0.7400000000000002
      6 O           1.1739   -2.2211    1.9510 O.2     1  LIG1      -0.5500000000000007
      7 O           2.3403    0.4247    3.1387 O.co2   1  LIG1      -0.6500000000000004
      8 O           3.4927   -0.2849    1.3076 O.co2   1  LIG1      -0.6500000000000004
      9 O          -2.4915    0.6458   -0.4964 O.3     1  LIG1      -0.8000000000000007
     10 O          -0.9375    2.5181   -1.4242 O.3     1  LIG1      -0.7799999999999994
     11 O          -2.1926    0.9197   -3.0676 O.2     1  LIG1      -0.7699999999999996
     12 O          -0.2811   -0.0070   -1.6507 O.3     1  LIG1      -0.6300000000000008
     13 P          -1.6008    1.1581   -1.6741 P.3     1  LIG1       0.9399999999999995
     14 H           1.4584   -0.7210   -0.9130 H       1  LIG1          0.13
     15 H           1.1821    0.9998   -0.5656 H       1  LIG1          0.12
     16 H          -0.0793    0.6132    1.3095 H       1  LIG1          0.13
     17 H          -1.6684   -0.5505    0.2260 H       1  LIG1       0.43000000000000005
@<TRIPOS>BOND
     1    11    13    2
     2    13    12    1
     3    13    10    1
     4    13     9    1
     5    12     1    1
     6    14     1    1
     7     1    15    1
     8     1     2    1
     9    17     5    1
    10     5     2    1
    11     2    16    1
    12     2     3    1
    13     8     4   ar
    14     3     6    2
    15     3     4    1
    16     4     7   ar
