@<TRIPOS>MOLECULE
NAQGHJTUZRHGAC-LBGUGVGYSA-J	11095245	-1967.8709744808011
 45 46 0 0 0
SMALL
MULLIKEN NwChem

@<TRIPOS>ATOM
      1 CB          5.2928   -1.0067   -3.5604 C.3     2  ASP2       -0.3700000000000001
      2 C          -4.1718    2.1888    1.8642 C.3     1  UNK1       -0.040000000000000036
      3 C           0.4582    2.1100    0.3746 C.ar    1  UNK1       0.17999999999999972
      4 CA          4.7577   -1.1554   -2.1107 C.3     2  ASP2       -0.04999999999999982
      5 C          -3.4854    1.0406    1.1211 C.3     1  UNK1       0.11000000000000032
      6 CG          6.8481   -1.0740   -3.8193 C.2     2  ASP2       0.5099999999999998
      7 C           2.0812    0.9367   -0.4329 C.ar    1  UNK1       0.05999999999999961
      8 C          -3.0940   -0.1771    1.9720 C.3     1  UNK1       0.08999999999999986
      9 C          -1.6771   -0.6382    1.3796 C.3     1  UNK1       0.13999999999999968
     10 C           0.9573    0.0958   -0.4214 C.ar    1  UNK1       0.45999999999999996
     11 C           3.4862    0.6307   -0.8395 C.2     1  UNK1       0.5300000000000002
     12 C          -1.4533    0.4253    0.2552 C.3     1  UNK1       0.29000000000000004
     13 C           4.2998   -2.6394   -1.8255 C.2     2  ASP2       0.5199999999999996
     14 N           0.7301   -1.2055   -0.8214 N.pl3   1  UNK1      -0.8899999999999997
     15 N           1.7326    2.1844    0.0841 N.ar    1  UNK1      -0.5700000000000003
     16 N           3.6025   -0.2698   -1.8633 N.am    2  ASP2      -0.5999999999999996
     17 N          -0.0760    0.8699    0.0839 N.ar    1  UNK1      -0.4800000000000004
     18 OD1         7.1602   -1.3208   -5.0232 O.co2   2  ASP2      -0.6999999999999993
     19 OD2         7.6169   -0.8013   -2.8631 O.co2   2  ASP2      -0.6699999999999999
     20 O          -3.9546   -1.2793    1.8065 O.3     1  UNK1      -0.7300000000000004
     21 O          -1.7582   -1.9144    0.9332 O.3     1  UNK1      -0.7799999999999994
     22 O           4.4532    1.1843   -0.2978 O.2     1  UNK1      -0.6300000000000008
     23 OXT         3.0424   -2.8367   -1.7130 O.co2   2  ASP2      -0.6500000000000004
     24 O           5.2013   -3.5034   -1.7823 O.co2   2  ASP2      -0.6600000000000001
     25 O          -6.6835    1.7717    0.5120 O.2     1  UNK1      -0.7300000000000004
     26 O          -6.6200   -0.3110    2.0922 O.3     1  UNK1      -0.7599999999999998
     27 O          -7.8255    1.7842    2.8878 O.3     1  UNK1      -0.6999999999999993
     28 O          -5.2585    1.7664    2.6716 O.3     1  UNK1      -0.6099999999999994
     29 O          -2.2547    1.5584    0.5633 O.3     1  UNK1      -0.5600000000000005
     30 P          -6.7316    1.3301    1.9563 P.3     1  UNK1       1.0500000000000007
     31 HB1         4.9833   -0.0128   -3.9217 H       2  ASP2       0.15000000000000002
     32 HB2         4.8102   -1.7325   -4.2288 H       2  ASP2          0.12
     33 H          -4.4891    2.9498    1.1392 H       1  UNK1          0.14
     34 H          -3.4284    2.6362    2.5417 H       1  UNK1       0.15000000000000002
     35 H          -0.1645    2.8930    0.7821 H       1  UNK1       0.18000000000000005
     36 HA          5.5646   -0.8660   -1.4332 H       2  ASP2          0.13
     37 H          -4.1404    0.6933    0.3092 H       1  UNK1          0.14
     38 H          -3.0273    0.1032    3.0341 H       1  UNK1          0.12
     39 H          -0.8911   -0.4539    2.1510 H       1  UNK1       0.06999999999999995
     40 H          -1.7802   -0.0422   -0.6888 H       1  UNK1          0.14
     41 H           1.5715   -1.7745   -0.9994 H       1  UNK1          0.37
     42 H           2.7483   -0.7371   -2.1452 H       2  ASP2       0.32999999999999996
     43 H          -3.2642   -1.9060    1.3300 H       1  UNK1          0.39
     44 H          -0.0041   -1.6904   -0.2952 H       1  UNK1          0.35
     45 H          -5.7129   -0.6361    1.8809 H       1  UNK1       0.44999999999999996
@<TRIPOS>BOND
     1    18     6   ar
     2    32     1    1
     3    31     1    1
     4     6     1    1
     5     6    19   ar
     6     1     4    1
     7    42    16    1
     8     4    16    1
     9     4    13    1
    10     4    36    1
    11    16    11   am
    12    13    24   ar
    13    13    23   ar
    14    41    14    1
    15    11     7    1
    16    11    22    2
    17    14    10    1
    18    14    44    1
    19    40    12    1
    20     7    10   ar
    21     7    15   ar
    22    10    17   ar
    23    17    12    1
    24    17     3   ar
    25    15     3   ar
    26    12    29    1
    27    12     9    1
    28    37     5    1
    29     3    35    1
    30    25    30    2
    31    29     5    1
    32    21     9    1
    33     5     2    1
    34     5     8    1
    35    33     2    1
    36    43    20    1
    37     9     8    1
    38     9    39    1
    39    20     8    1
    40     2    34    1
    41     2    28    1
    42    45    26    1
    43    30    26    1
    44    30    28    1
    45    30    27    1
    46     8    38    1
