@<TRIPOS>MOLECULE
NBBJYMSMWIIQGU-UHFFFAOYSA-N	6044907	-193.09163065883243
 10 9 0 0 0
SMALL
MULLIKEN NwChem

@<TRIPOS>ATOM
      1 C           0.2937    0.0617    1.6356 C.3     1  LIG1      -0.46999999999999975
      2 C          -0.2549    0.6613    0.3298 C.3     1  LIG1      -0.33000000000000007
      3 C           0.2280   -0.1064   -0.8807 C.2     1  LIG1       0.2699999999999996
      4 O          -0.4884   -0.5894   -1.7288 O.2     1  LIG1      -0.4499999999999993
      5 H          -0.0800   -0.9565    1.7886 H       1  LIG1       0.17000000000000004
      6 H          -0.0098    0.6666    2.4957 H       1  LIG1       0.17000000000000004
      7 H           1.3895    0.0207    1.6246 H       1  LIG1       0.17000000000000004
      8 H          -1.3492    0.6763    0.3157 H       1  LIG1       0.16000000000000003
      9 H           0.1016    1.6978    0.2281 H       1  LIG1       0.18999999999999995
     10 H           1.3376   -0.2137   -0.9448 H       1  LIG1           0.13
@<TRIPOS>BOND
     1     4     3    2
     2    10     3    1
     3     3     2    1
     4     9     2    1
     5     8     2    1
     6     2     1    1
     7     7     1    1
     8     1     5    1
     9     1     6    1
