@<TRIPOS>MOLECULE
NBFWIISVIFCMDK-QMKXCQHVSA-M	6044909	-686.6025408431984
 23 22 0 0 0
SMALL
MULLIKEN NwChem

@<TRIPOS>ATOM
      1 C          -1.6981    2.2190   -1.3354 C.3     1  LIG1      -0.45999999999999996
      2 C          -2.1090    1.0569   -0.4337 C.3     1  LIG1       0.15000000000000036
      3 C          -1.4953   -0.2993   -0.8477 C.3     1  LIG1       0.07000000000000028
      4 C           0.0394   -0.4544   -0.7996 C.3     1  LIG1       0.11000000000000032
      5 C           0.6667   -0.0935    0.5580 C.3     1  LIG1           0.0
      6 C           2.1420   -0.5764    0.6184 C.2     1  LIG1       0.5700000000000003
      7 O          -1.8231    1.4385    0.9134 O.3     1  LIG1      -0.6999999999999993
      8 O          -2.0926   -1.3436   -0.0684 O.3     1  LIG1      -0.7100000000000009
      9 O           0.6594    0.3125   -1.8180 O.3     1  LIG1      -0.6999999999999993
     10 O          -0.0509   -0.7087    1.6406 O.3     1  LIG1      -0.7100000000000009
     11 O           2.8751   -0.2489   -0.3522 O.co2   1  LIG1      -0.6400000000000006
     12 O           2.4196   -1.2572    1.6420 O.co2   1  LIG1      -0.6500000000000004
     13 H          -0.6141    2.3431   -1.3262 H       1  LIG1       0.16000000000000003
     14 H          -2.1764    3.1411   -0.9840 H       1  LIG1       0.15000000000000002
     15 H          -2.0094    2.0349   -2.3710 H       1  LIG1       0.15000000000000002
     16 H          -3.2000    0.9035   -0.5280 H       1  LIG1          0.12
     17 H          -1.7960   -0.4694   -1.8918 H       1  LIG1          0.14
     18 H           0.2134   -1.5338   -0.9672 H       1  LIG1          0.12
     19 H           0.6352    0.9970    0.6695 H       1  LIG1       0.15000000000000002
     20 H          -1.5492    0.6477    1.4111 H       1  LIG1       0.42000000000000004
     21 H          -1.5019   -1.4488    0.7058 H       1  LIG1       0.43000000000000005
     22 H           1.6190    0.2631   -1.5619 H       1  LIG1       0.41000000000000003
     23 H           0.7158   -1.1671    2.0942 H       1  LIG1       0.42000000000000004
@<TRIPOS>BOND
     1    15     1    1
     2    17     3    1
     3     9    22    1
     4     9     4    1
     5     1    13    1
     6     1    14    1
     7     1     2    1
     8    18     4    1
     9     3     4    1
    10     3     2    1
    11     3     8    1
    12     4     5    1
    13    16     2    1
    14     2     7    1
    15    11     6   ar
    16     8    21    1
    17     5     6    1
    18     5    19    1
    19     5    10    1
    20     6    12   ar
    21     7    20    1
    22    10    23    1
