@<TRIPOS>MOLECULE
NBIIXXVUZAFLBC-UHFFFAOYSA-L	6044910	-643.1936015490609
 6 5 0 0 0
SMALL
MULLIKEN NwChem

@<TRIPOS>ATOM
      1 O          -1.2395    0.1400   -0.9723 O.2     1  LIG1      -0.8100000000000005
      2 O          -0.0990    1.0518    1.1734 O.3     1  LIG1      -0.8100000000000005
      3 O           0.0249   -1.4828    0.6166 O.3     1  LIG1      -0.8200000000000003
      4 O           1.3735    0.2050   -0.8193 O.3     1  LIG1      -0.8000000000000007
      5 P           0.0240    0.1631   -0.0843 P.3     1  LIG1       0.8399999999999999
      6 H          -0.8316   -1.4431    1.0711 H       1  LIG1           0.39
@<TRIPOS>BOND
     1     1     5    2
     2     4     5    1
     3     5     3    1
     4     5     2    1
     5     3     6    1
