@<TRIPOS>MOLECULE
NBSCHQHZLSJFNQ-UHFFFAOYSA-L	6044912	-1253.8119653849485
 27 27 0 0 0
SMALL
MULLIKEN NwChem

@<TRIPOS>ATOM
      1 C          -1.3520   -0.2339    0.6522 C.3     1  LIG1       -0.05999999999999961
      2 C          -1.2860    0.6339   -0.6235 C.3     1  LIG1       0.08999999999999986
      3 C          -0.0542    0.5195   -1.5548 C.3     1  LIG1       0.09999999999999964
      4 C           1.1906    1.1933   -0.9358 C.3     1  LIG1       0.1299999999999999
      5 C           0.8411    2.6858   -0.7081 C.3     1  LIG1       0.07000000000000028
      6 C          -0.3715    2.7433    0.2574 C.3     1  LIG1       0.3099999999999996
      7 O           0.1741   -0.7708   -2.0806 O.3     1  LIG1      -0.7300000000000004
      8 O           1.6484    0.6953    0.2799 O.3     1  LIG1      -0.7699999999999996
      9 O           1.9814    3.3295   -0.1418 O.3     1  LIG1      -0.6999999999999993
     10 O          -0.0006    2.3070    1.5290 O.3     1  LIG1      -0.6999999999999993
     11 O          -0.3881   -3.9592    0.5471 O.2     1  LIG1      -0.6899999999999995
     12 O           1.1633   -1.9553    0.1793 O.3     1  LIG1      -0.7899999999999991
     13 O          -0.0163   -2.1859    2.4790 O.3     1  LIG1      -0.7200000000000006
     14 O          -1.3693   -1.6188    0.3348 O.3     1  LIG1      -0.6099999999999994
     15 O          -1.4938    2.0348   -0.3022 O.3     1  LIG1      -0.5399999999999991
     16 P          -0.1424   -2.5569    1.0237 P.3     1  LIG1       1.0700000000000003
     17 H          -2.2908    0.0385    1.1630 H       1  LIG1          0.13
     18 H          -0.5464   -0.0025    1.3423 H       1  LIG1          0.14
     19 H          -2.1623    0.3598   -1.2276 H       1  LIG1          0.14
     20 H          -0.3177    1.1382   -2.4317 H       1  LIG1          0.12
     21 H           1.9783    1.1483   -1.7266 H       1  LIG1       0.06999999999999995
     22 H           0.5859    3.2028   -1.6446 H       1  LIG1          0.13
     23 H          -0.7525    3.7715    0.3510 H       1  LIG1          0.13
     24 H           0.4793   -1.3433   -1.3358 H       1  LIG1       0.43999999999999995
     25 H           1.3930   -0.9988    0.4053 H       1  LIG1       0.43999999999999995
     26 H           2.3385    2.5796    0.3904 H       1  LIG1          0.39
     27 H           0.6640    1.5712    1.3254 H       1  LIG1       0.42000000000000004
@<TRIPOS>BOND
     1    20     3    1
     2     7     3    1
     3     7    24    1
     4    21     4    1
     5    22     5    1
     6     3     4    1
     7     3     2    1
     8    19     2    1
     9     4     5    1
    10     4     8    1
    11     5     9    1
    12     5     6    1
    13     2    15    1
    14     2     1    1
    15    15     6    1
    16     9    26    1
    17    12    25    1
    18    12    16    1
    19     6    23    1
    20     6    10    1
    21    14     1    1
    22    14    16    1
    23    11    16    2
    24     1    17    1
    25     1    18    1
    26    16    13    1
    27    27    10    1
