@<TRIPOS>MOLECULE
NBSCHQHZLSJFNQ-DVKNGEFBSA-L	11095243	-1253.7963273056876
 27 27 0 0 0
SMALL
MULLIKEN NwChem

@<TRIPOS>ATOM
      1 C           1.0686    0.9095   -1.0796 C.3     1  LIG1       -0.08999999999999986
      2 C          -0.1889    0.5571   -0.2676 C.3     1  LIG1       0.08999999999999986
      3 C          -0.8998   -0.7264   -0.7369 C.3     1  LIG1       0.16999999999999993
      4 C          -2.1680   -0.8758    0.1400 C.3     1  LIG1       0.08000000000000007
      5 C          -3.1022    0.2929   -0.0667 C.3     1  LIG1       0.1299999999999999
      6 C          -2.3413    1.5784    0.3109 C.3     1  LIG1       0.33000000000000007
      7 O          -0.1955   -1.8843   -0.6876 O.3     1  LIG1      -0.7899999999999991
      8 O          -2.7689   -2.1226   -0.2020 O.3     1  LIG1      -0.7300000000000004
      9 O          -4.3257    0.1834    0.6804 O.3     1  LIG1      -0.6999999999999993
     10 O          -2.1374    1.6197    1.7256 O.3     1  LIG1      -0.6799999999999997
     11 O           2.0480   -1.3097    0.7232 O.3     1  LIG1      -0.7799999999999994
     12 O           4.1920    0.0579    0.9839 O.3     1  LIG1      -0.6999999999999993
     13 O           3.4987   -0.8827   -1.3896 O.2     1  LIG1      -0.7300000000000004
     14 O           2.2170    1.0665   -0.2684 O.3     1  LIG1      -0.5999999999999996
     15 O          -1.1299    1.6966   -0.3851 O.3     1  LIG1      -0.5500000000000007
     16 P           3.1482   -0.3455   -0.0216 P.3     1  LIG1       1.0299999999999994
     17 H           0.8800    1.8610   -1.6012 H       1  LIG1       0.15000000000000002
     18 H           1.2398    0.1306   -1.8350 H       1  LIG1       0.15000000000000002
     19 H           0.1124    0.4479    0.7804 H       1  LIG1          0.13
     20 H          -1.2742   -0.4832   -1.7745 H       1  LIG1       0.050000000000000044
     21 H          -1.8556   -0.8904    1.1973 H       1  LIG1       0.09999999999999998
     22 H          -3.3411    0.3701   -1.1406 H       1  LIG1          0.13
     23 H          -2.9311    2.4623    0.0109 H       1  LIG1          0.14
     24 H           1.2920   -1.6031    0.1233 H       1  LIG1       0.42000000000000004
     25 H          -1.9146   -2.5885   -0.4527 H       1  LIG1          0.39
     26 H          -4.4543   -0.7773    0.7460 H       1  LIG1       0.43000000000000005
     27 H          -1.2559    2.0167    1.8183 H       1  LIG1       0.43000000000000005
@<TRIPOS>BOND
     1    18     1    1
     2    20     3    1
     3    17     1    1
     4    13    16    2
     5    22     5    1
     6     1    14    1
     7     1     2    1
     8     3     7    1
     9     3     2    1
    10     3     4    1
    11    25     8    1
    12    15     2    1
    13    15     6    1
    14    14    16    1
    15     2    19    1
    16     8     4    1
    17     5     4    1
    18     5     6    1
    19     5     9    1
    20    16    11    1
    21    16    12    1
    22    23     6    1
    23    24    11    1
    24     4    21    1
    25     6    10    1
    26     9    26    1
    27    10    27    1
