@<TRIPOS>MOLECULE
NBSCHQHZLSJFNQ-VFUOTHLCSA-L	11095242	-1253.7922109891385
 27 27 0 0 0
SMALL
MULLIKEN NwChem

@<TRIPOS>ATOM
      1 C           1.0648   -1.1494   -0.0152 C.3     1  LIG1       -0.08000000000000007
      2 C          -0.2753   -0.5676    0.4692 C.3     1  LIG1       0.1299999999999999
      3 C          -1.4522   -1.5219    0.1534 C.3     1  LIG1       0.11000000000000032
      4 C          -2.8626   -0.8993    0.3192 C.3     1  LIG1       0.09999999999999964
      5 C          -2.8207    0.6462    0.3411 C.3     1  LIG1       0.07000000000000028
      6 C          -1.8792    1.0568   -0.8129 C.3     1  LIG1       0.33000000000000007
      7 O          -1.3921   -2.6764    1.0219 O.3     1  LIG1      -0.6999999999999993
      8 O          -3.7179   -1.3037   -0.7533 O.3     1  LIG1      -0.7200000000000006
      9 O          -2.4141    1.1971    1.5933 O.3     1  LIG1      -0.7100000000000009
     10 O          -2.0840    0.4556   -1.9330 O.3     1  LIG1      -0.6999999999999993
     11 O           4.3324    0.7569    0.7742 O.3     1  LIG1      -0.6899999999999995
     12 O           2.1576    1.8683   -0.0017 O.3     1  LIG1      -0.7599999999999998
     13 O           3.2752    0.1017   -1.5571 O.2     1  LIG1      -0.7100000000000009
     14 O           2.1658   -0.5974    0.6749 O.3     1  LIG1      -0.5999999999999996
     15 O          -0.4419    0.7399   -0.0734 O.3     1  LIG1      -0.6400000000000006
     16 P           3.1452    0.5445   -0.1204 P.3     1  LIG1       1.0299999999999994
     17 H           1.0832   -2.2452    0.1612 H       1  LIG1          0.14
     18 H           1.1484   -0.9935   -1.0982 H       1  LIG1       0.15000000000000002
     19 H          -0.2195   -0.5025    1.5699 H       1  LIG1          0.12
     20 H          -1.3716   -1.8391   -0.8937 H       1  LIG1          0.13
     21 H          -3.2877   -1.2695    1.2603 H       1  LIG1          0.13
     22 H          -3.8411    0.9982    0.1327 H       1  LIG1          0.13
     23 H          -1.7178    2.1609   -0.8337 H       1  LIG1       0.06999999999999995
     24 H          -0.4801   -3.0025    0.9682 H       1  LIG1       0.42000000000000004
     25 H          -3.2933   -0.7892   -1.4960 H       1  LIG1           0.4
     26 H          -1.4547    1.3330    1.4460 H       1  LIG1       0.42000000000000004
     27 H           1.2327    1.5846   -0.1824 H       1  LIG1       0.43999999999999995
@<TRIPOS>BOND
     1    10     6    1
     2    13    16    2
     3    25     8    1
     4    18     1    1
     5    20     3    1
     6    23     6    1
     7     6    15    1
     8     6     5    1
     9     8     4    1
    10    27    12    1
    11    16    12    1
    12    16    14    1
    13    16    11    1
    14    15     2    1
    15     1    17    1
    16     1     2    1
    17     1    14    1
    18    22     5    1
    19     3     4    1
    20     3     2    1
    21     3     7    1
    22     4     5    1
    23     4    21    1
    24     5     9    1
    25     2    19    1
    26    24     7    1
    27    26     9    1
