@<TRIPOS>MOLECULE
NCMVOABPESMRCP-SHYZEUOFSA-L	11095241	-1382.542592567652
 32 33 0 0 0
SMALL
MULLIKEN NwChem

@<TRIPOS>ATOM
      1 C           3.9883   -1.3399    1.0968 C.ar    1  LIG1      -0.2400000000000002
      2 C           2.7381   -0.9652    0.7586 C.ar    1  LIG1       0.05999999999999961
      3 C           0.0227   -1.4760   -0.7210 C.3     1  LIG1       -0.3200000000000003
      4 C          -1.3823    1.1542    1.3415 C.3     1  LIG1       -0.07000000000000028
      5 C          -1.3084   -0.7862   -0.3819 C.3     1  LIG1       0.1200000000000001
      6 C          -0.8680    0.6639   -0.0161 C.3     1  LIG1       0.11000000000000032
      7 C           5.0132   -1.4243    0.0509 C.ar    1  LIG1       0.4299999999999997
      8 C           1.0434   -0.3290   -0.8733 C.3     1  LIG1       0.2699999999999996
      9 C           3.4234   -0.7331   -1.5901 C.ar    1  LIG1       0.6600000000000001
     10 N           6.2210   -1.7995    0.4011 N.pl3   1  LIG1      -0.8099999999999996
     11 N           4.6653   -1.1057   -1.2448 N.ar    1  LIG1      -0.6699999999999999
     12 N           2.4067   -0.6604   -0.5418 N.ar    1  LIG1         -0.5
     13 O          -2.1857   -0.8180   -1.4898 O.3     1  LIG1      -0.7300000000000004
     14 O           3.0513   -0.4526   -2.7433 O.2     1  LIG1      -0.6600000000000001
     15 O          -3.9961    1.1035   -0.7239 O.2     1  LIG1      -0.6999999999999993
     16 O          -5.2215    1.3333    1.5108 O.3     1  LIG1      -0.7100000000000009
     17 O          -3.6130    3.2251    0.8162 O.3     1  LIG1      -0.6999999999999993
     18 O          -2.7668    0.8902    1.5422 O.3     1  LIG1      -0.5800000000000001
     19 O           0.5608    0.6837    0.0339 O.3     1  LIG1      -0.5500000000000007
     20 P          -3.8719    1.7556    0.6316 P.3     1  LIG1       1.0700000000000003
     21 H           4.2552   -1.5633    2.1248 H       1  LIG1          0.13
     22 H           1.9327   -0.8465    1.4779 H       1  LIG1       0.18000000000000005
     23 H          -0.0611   -2.0716   -1.6339 H       1  LIG1       0.16000000000000003
     24 H           0.3444   -2.1334    0.0951 H       1  LIG1       0.16000000000000003
     25 H          -1.1718    2.2249    1.4632 H       1  LIG1       0.16000000000000003
     26 H          -0.8415    0.6018    2.1208 H       1  LIG1       0.16000000000000003
     27 H          -1.7808   -1.2543    0.4965 H       1  LIG1          0.13
     28 H          -1.2239    1.3221   -0.8216 H       1  LIG1          0.14
     29 H           1.0638    0.0472   -1.8991 H       1  LIG1       0.16000000000000003
     30 H           6.7713   -1.7880   -0.4688 H       1  LIG1          0.25
     31 H          -2.9167   -0.1818   -1.2758 H       1  LIG1       0.43999999999999995
     32 H          -5.2551    1.9826    2.2304 H       1  LIG1       0.44999999999999996
@<TRIPOS>BOND
     1    14     9    2
     2    29     8    1
     3    23     3    1
     4     9    11   ar
     5     9    12   ar
     6    13    31    1
     7    13     5    1
     8    11     7   ar
     9     8     3    1
    10     8    12    1
    11     8    19    1
    12    28     6    1
    13    15    20    2
    14     3     5    1
    15     3    24    1
    16    12     2   ar
    17    30    10    1
    18     5     6    1
    19     5    27    1
    20     6    19    1
    21     6     4    1
    22     7    10    1
    23     7     1   ar
    24    20    17    1
    25    20    16    1
    26    20    18    1
    27     2     1   ar
    28     2    22    1
    29     1    21    1
    30     4    25    1
    31     4    18    1
    32     4    26    1
    33    16    32    1
