@<TRIPOS>MOLECULE
NGCXIFFZXAZRAF-UHFFFAOYSA-M	6044919	-667.6930236929497
 25 24 0 0 0
SMALL
MULLIKEN NwChem

@<TRIPOS>ATOM
      1 C          -1.1664   -2.8022   -0.7474 C.3     1  LIG1       -0.5499999999999998
      2 C           1.2638    0.7305    1.6346 C.3     1  LIG1      -0.2400000000000002
      3 C          -0.1465    0.2946    2.0820 C.3     1  LIG1      -0.2699999999999996
      4 C           1.3966    0.7760    0.1037 C.3     1  LIG1       -0.3700000000000001
      5 C          -0.7049   -0.8277    1.1943 C.3     1  LIG1       -0.1200000000000001
      6 C          -0.0216   -2.9293    0.2950 C.2     1  LIG1       0.46999999999999975
      7 C           0.3443    1.6100   -0.5558 C.2     1  LIG1       0.41000000000000014
      8 C          -0.0794    1.2540   -1.9935 C.2     1  LIG1       0.5800000000000001
      9 N           0.2058   -1.9251    1.1571 N.am    1  LIG1      -0.5999999999999996
     10 O           0.6629   -3.9746    0.2542 O.2     1  LIG1      -0.6899999999999995
     11 O          -0.1910    2.6075   -0.0598 O.2     1  LIG1      -0.5099999999999998
     12 O          -1.0471    2.0844   -2.4367 O.3     1  LIG1      -0.5999999999999996
     13 O           0.4061    0.3737   -2.6679 O.2     1  LIG1         -0.5
     14 H          -2.1391   -2.5912   -0.2801 H       1  LIG1       0.15000000000000002
     15 H          -1.2340   -3.7378   -1.3087 H       1  LIG1          0.13
     16 H          -0.9654   -1.9809   -1.4497 H       1  LIG1       0.15000000000000002
     17 H           1.5151    1.7066    2.0699 H       1  LIG1          0.14
     18 H           1.9895   -0.0055    1.9917 H       1  LIG1          0.14
     19 H          -0.8269    1.1566    2.0558 H       1  LIG1          0.13
     20 H          -0.0938   -0.0550    3.1215 H       1  LIG1          0.12
     21 H           2.3778    1.1767   -0.1978 H       1  LIG1       0.20999999999999996
     22 H           1.3496   -0.2457   -0.2909 H       1  LIG1       0.18000000000000005
     23 H          -0.9087   -0.3566    0.1894 H       1  LIG1       0.08999999999999997
     24 H          -1.7257   -1.0849    1.5545 H       1  LIG1       0.10999999999999999
     25 H          -1.1988    2.6879   -1.6707 H       1  LIG1       0.45999999999999996
@<TRIPOS>BOND
     1    13     8    2
     2    12     8    1
     3    12    25    1
     4     8     7    1
     5    16     1    1
     6    15     1    1
     7     1    14    1
     8     1     6    1
     9     7    11    2
    10     7     4    1
    11    22     4    1
    12    21     4    1
    13     4     2    1
    14    23     5    1
    15    10     6    2
    16     6     9   am
    17     9     5    1
    18     5    24    1
    19     5     3    1
    20     2    18    1
    21     2    17    1
    22     2     3    1
    23    19     3    1
    24     3    20    1
