@<TRIPOS>MOLECULE
NGFSMHKFTZROKJ-MMSZMYIBSA-K	11095236	-2381.8786463903334
 88 87 0 0 0
SMALL
MULLIKEN NwChem

@<TRIPOS>ATOM
      1 C         -15.8001   -0.3131    1.8188 C.3     1  LIG1      -0.5199999999999996
      2 C         -14.6820   -1.9313    0.2301 C.3     1  LIG1      -0.5300000000000002
      3 C         -10.4640   -1.3703   -1.9426 C.3     1  LIG1      -0.5300000000000002
      4 C          -7.6868    0.5400    1.3692 C.3     1  LIG1        -0.54
      5 C          -1.8678    2.6003    0.3248 C.3     1  LIG1        -0.54
      6 C           1.0634   -0.6271    1.2136 C.3     1  LIG1        -0.54
      7 C           6.4775   -0.4690    1.3863 C.3     1  LIG1      -0.5800000000000001
      8 C         -12.0318   -0.3948    0.7205 C.3     1  LIG1      -0.3099999999999996
      9 C          -8.1854    0.7114   -1.8814 C.3     1  LIG1      -0.3099999999999996
     10 C          -4.7399    1.6510    1.4153 C.3     1  LIG1      -0.3200000000000003
     11 C          -1.0024    0.0279   -1.2716 C.3     1  LIG1      -0.3099999999999996
     12 C           3.7806    0.1044   -0.2364 C.3     1  LIG1      -0.3099999999999996
     13 C         -13.3345   -0.1282    1.4006 C.2     1  LIG1      -0.20000000000000018
     14 C         -11.9035    0.3055   -0.6927 C.3     1  LIG1      -0.33000000000000007
     15 C          -9.5752    0.9242   -1.3492 C.2     1  LIG1      -0.1900000000000004
     16 C          -7.2128   -0.1814   -1.0260 C.3     1  LIG1      -0.33000000000000007
     17 C          -5.4371    0.9540    0.2803 C.2     1  LIG1      -0.17999999999999972
     18 C          -3.3388    1.0523    1.7265 C.3     1  LIG1      -0.33000000000000007
     19 C          -1.9332    0.1109   -0.0925 C.2     1  LIG1      -0.17999999999999972
     20 C           0.1253   -1.0334   -1.1410 C.3     1  LIG1      -0.33999999999999986
     21 C           2.4736   -0.3011   -0.8571 C.2     1  LIG1      -0.1900000000000004
     22 C           4.9455   -0.8397   -0.6405 C.3     1  LIG1      -0.33000000000000007
     23 C           7.2355    0.0530   -0.9650 C.2     1  LIG1      -0.21999999999999975
     24 C           8.5973    0.5962   -0.6404 C.3     1  LIG1       -0.11000000000000032
     25 C         -14.5262   -0.7486    1.1478 C.2     1  LIG1      0.1900000000000004
     26 C         -10.6046    0.0232   -1.3850 C.2     1  LIG1      0.16999999999999993
     27 C          -6.6927    0.4610    0.2389 C.2     1  LIG1      0.16999999999999993
     28 C          -2.3356    1.1906    0.5991 C.2     1  LIG1      0.17999999999999972
     29 C           1.3058   -0.6280   -0.2775 C.2     1  LIG1      0.17999999999999972
     30 C           6.2951   -0.3900   -0.1145 C.2     1  LIG1      0.17999999999999972
     31 O          12.1610    0.0031    2.4981 O.3     1  LIG1      -0.7899999999999991
     32 O           9.6178   -0.2654    2.2138 O.2     1  LIG1        -0.75
     33 O          11.1351   -2.3260    2.2893 O.3     1  LIG1      -0.7899999999999991
     34 O          11.3166    1.6182   -0.6092 O.3     1  LIG1      -0.7400000000000002
     35 O          11.9555   -0.4181   -2.1635 O.2     1  LIG1      -0.6999999999999993
     36 O           9.5354   -0.0113   -1.5175 O.3     1  LIG1      -0.6099999999999994
     37 O          11.1979   -0.8688    0.2304 O.3     1  LIG1      -0.6699999999999999
     38 P          11.0203   -0.8383    1.9092 P.3     1  LIG1       0.8399999999999999
     39 P          11.1596    0.1792   -1.0322 P.3     1  LIG1       1.0700000000000003
     40 H         -15.6460    0.5627    2.4614 H       1  LIG1       0.16000000000000003
     41 H         -16.2367   -1.1114    2.4487 H       1  LIG1       0.16000000000000003
     42 H         -16.5880   -0.0537    1.0871 H       1  LIG1       0.16000000000000003
     43 H         -15.4529   -1.7486   -0.5401 H       1  LIG1       0.16000000000000003
     44 H         -13.7550   -2.1893   -0.2909 H       1  LIG1       0.16000000000000003
     45 H         -15.0180   -2.8358    0.7725 H       1  LIG1       0.16000000000000003
     46 H         -11.3363   -1.6467   -2.5567 H       1  LIG1       0.16000000000000003
     47 H         -10.4054   -2.1345   -1.1450 H       1  LIG1       0.17000000000000004
     48 H          -9.5691   -1.4921   -2.5620 H       1  LIG1       0.16000000000000003
     49 H          -7.2875    1.0190    2.2685 H       1  LIG1       0.16000000000000003
     50 H          -8.0403   -0.4633    1.6454 H       1  LIG1       0.16000000000000003
     51 H          -8.5850    1.0880    1.0480 H       1  LIG1       0.17000000000000004
     52 H          -1.0538    2.6446   -0.4023 H       1  LIG1       0.16000000000000003
     53 H          -1.5140    3.0744    1.2509 H       1  LIG1       0.16000000000000003
     54 H          -2.6875    3.2275   -0.0539 H       1  LIG1       0.17000000000000004
     55 H           1.9702   -0.4126    1.7842 H       1  LIG1       0.16000000000000003
     56 H           0.6813   -1.6048    1.5428 H       1  LIG1       0.16000000000000003
     57 H           0.2985    0.1095    1.4919 H       1  LIG1       0.16000000000000003
     58 H           7.5334   -0.4353    1.6892 H       1  LIG1       0.18999999999999995
     59 H           6.0429   -1.4067    1.7691 H       1  LIG1       0.15000000000000002
     60 H           5.9474    0.3488    1.9038 H       1  LIG1       0.16000000000000003
     61 H         -11.8701   -1.4736    0.5731 H       1  LIG1       0.15000000000000002
     62 H         -11.1924   -0.0364    1.3311 H       1  LIG1          0.14
     63 H          -8.2293    0.2363   -2.8750 H       1  LIG1       0.15000000000000002
     64 H          -7.6907    1.6799   -2.0326 H       1  LIG1          0.14
     65 H          -5.3403    1.6140    2.3318 H       1  LIG1       0.15000000000000002
     66 H          -4.6151    2.7216    1.1838 H       1  LIG1       0.15000000000000002
     67 H          -1.6069   -0.2418   -2.1534 H       1  LIG1       0.15000000000000002
     68 H          -0.5447    0.9964   -1.4998 H       1  LIG1       0.15000000000000002
     69 H           4.0442    1.1168   -0.5785 H       1  LIG1          0.14
     70 H           3.7159    0.1565    0.8551 H       1  LIG1       0.16000000000000003
     71 H         -13.3554    0.7374    2.0660 H       1  LIG1          0.13
     72 H         -12.7624   -0.0368   -1.2915 H       1  LIG1          0.14
     73 H         -12.0356    1.3848   -0.5388 H       1  LIG1          0.14
     74 H          -9.7757    1.8939   -0.8928 H       1  LIG1          0.13
     75 H          -6.3624   -0.4520   -1.6668 H       1  LIG1          0.14
     76 H          -7.7446   -1.1137   -0.7889 H       1  LIG1          0.14
     77 H          -4.8194    0.8308   -0.6106 H       1  LIG1          0.12
     78 H          -3.4658   -0.0059    1.9858 H       1  LIG1          0.14
     79 H          -2.9454    1.5568    2.6230 H       1  LIG1          0.14
     80 H          -2.3457   -0.8541    0.2111 H       1  LIG1          0.12
     81 H          -0.3218   -1.9646   -0.7558 H       1  LIG1          0.14
     82 H           0.4870   -1.2595   -2.1517 H       1  LIG1          0.14
     83 H           2.5121   -0.3611   -1.9489 H       1  LIG1          0.12
     84 H           4.7007   -1.8473   -0.2652 H       1  LIG1          0.14
     85 H           4.9714   -0.9084   -1.7377 H       1  LIG1          0.14
     86 H           7.0120    0.0331   -2.0370 H       1  LIG1          0.12
     87 H           8.8661    0.4257    0.4084 H       1  LIG1       0.18999999999999995
     88 H           8.5873    1.6928   -0.7976 H       1  LIG1           0.12
@<TRIPOS>BOND
     1    63     9    1
     2    48     3    1
     3    46     3    1
     4    35    39    2
     5    67    11    1
     6    82    20    1
     7    86    23    1
     8    64     9    1
     9    83    21    1
    10     3    26    1
    11     3    47    1
    12     9    15    1
    13     9    16    1
    14    85    22    1
    15    75    16    1
    16    36    39    1
    17    36    24    1
    18    68    11    1
    19    26    15    2
    20    26    14    1
    21    15    74    1
    22    72    14    1
    23    11    20    1
    24    11    19    1
    25    20    81    1
    26    20    29    1
    27    39    34    1
    28    39    37    1
    29    16    76    1
    30    16    27    1
    31    23    24    1
    32    23    30    2
    33    21    29    2
    34    21    12    1
    35    88    24    1
    36    14    73    1
    37    14     8    1
    38    22    84    1
    39    22    12    1
    40    22    30    1
    41    24    87    1
    42    77    17    1
    43    69    12    1
    44    43     2    1
    45    52     5    1
    46    44     2    1
    47    29     6    1
    48    12    70    1
    49    30     7    1
    50    19    80    1
    51    19    28    2
    52    54     5    1
    53     2    45    1
    54     2    25    1
    55    37    38    1
    56    27    17    2
    57    27     4    1
    58    17    10    1
    59     5    28    1
    60     5    53    1
    61    61     8    1
    62    28    18    1
    63     8    62    1
    64     8    13    1
    65    51     4    1
    66    42     1    1
    67    25    13    2
    68    25     1    1
    69    66    10    1
    70     6    57    1
    71     6    56    1
    72     6    55    1
    73     4    50    1
    74     4    49    1
    75     7    58    1
    76     7    59    1
    77     7    60    1
    78    13    71    1
    79    10    18    1
    80    10    65    1
    81    18    78    1
    82    18    79    1
    83     1    41    1
    84     1    40    1
    85    38    32    2
    86    38    33    1
    87    38    31    1
