@<TRIPOS>MOLECULE
NGHMDNPXVRFFGS-IUYQGCFVSA-L	11095235	-1024.7970430447251
 19 18 0 0 0
SMALL
MULLIKEN NwChem

@<TRIPOS>ATOM
      1 C          -2.8806    0.7881    1.3447 C.2     1  LIG1       0.2400000000000002
      2 C          -0.2270    0.6756    0.0333 C.3     1  LIG1       -0.05999999999999961
      3 C          -2.3310   -0.5584    1.0484 C.3     1  LIG1       0.04999999999999982
      4 C          -1.1247   -0.5754   -0.0906 C.3     1  LIG1       0.16000000000000014
      5 O          -2.8451    1.4278    2.3857 O.2     1  LIG1      -0.4900000000000002
      6 O          -1.8314   -1.2529    2.1445 O.3     1  LIG1      -0.7200000000000006
      7 O          -0.4852   -1.7445    0.1211 O.3     1  LIG1        -0.75
      8 O           3.0056    0.6086   -2.1008 O.2     1  LIG1      -0.7100000000000009
      9 O           2.7439    0.5744    0.5213 O.3     1  LIG1      -0.7200000000000006
     10 O           1.9786   -1.4393   -0.9409 O.3     1  LIG1      -0.7799999999999994
     11 O           0.6846    0.7658   -1.0476 O.3     1  LIG1      -0.6099999999999994
     12 P           2.2691    0.1776   -0.8587 P.3     1  LIG1           1.0
     13 H          -3.3989    1.2198    0.4434 H       1  LIG1       0.10999999999999999
     14 H           0.3004    0.6505    0.9963 H       1  LIG1          0.13
     15 H          -0.8553    1.5869    0.0068 H       1  LIG1          0.12
     16 H          -3.1667   -1.1014    0.5463 H       1  LIG1          0.13
     17 H          -1.6444   -0.4986   -1.0770 H       1  LIG1       0.06000000000000005
     18 H          -1.0676   -1.7224    1.6530 H       1  LIG1           0.4
     19 H           1.0955   -1.6229   -0.4990 H       1  LIG1       0.43000000000000005
@<TRIPOS>BOND
     1     8    12    2
     2    17     4    1
     3    11    12    1
     4    11     2    1
     5    10    12    1
     6    10    19    1
     7    12     9    1
     8     4     2    1
     9     4     7    1
    10     4     3    1
    11    15     2    1
    12     2    14    1
    13    13     1    1
    14    16     3    1
    15     3     1    1
    16     3     6    1
    17     1     5    2
    18    18     6    1
