@<TRIPOS>MOLECULE
NGVDGCNFYWLIFO-UHFFFAOYSA-L	6044922	-1157.3557255795004
 24 24 0 0 0
SMALL
MULLIKEN NwChem

@<TRIPOS>ATOM
      1 C          -0.2455    3.6040    2.2098 C.3     1  LIG1      -0.5199999999999996
      2 C          -1.1424    0.9693   -0.2052 C.2     1  LIG1       -0.1200000000000001
      3 C           0.5193   -1.4051    2.1835 C.2     1  LIG1       0.15000000000000036
      4 C          -1.0155   -1.5075   -0.3852 C.3     1  LIG1       -0.13999999999999968
      5 C          -0.4103    2.2551    1.5548 C.2     1  LIG1       0.23000000000000043
      6 C          -0.7029   -0.2155    0.3673 C.2     1  LIG1      0.08000000000000007
      7 C          -0.0464   -0.1804    1.6346 C.3     1  LIG1       -0.040000000000000036
      8 C           0.0865    1.0986    2.3240 C.2     1  LIG1       0.3200000000000003
      9 N          -0.9850    2.1964    0.3718 N.2     1  LIG1      -0.5099999999999998
     10 O           0.9789   -1.5970    3.3118 O.2     1  LIG1      -0.5299999999999994
     11 O           0.5839    1.2895    3.4620 O.2     1  LIG1      -0.6699999999999999
     12 O          -1.0812   -0.9935   -3.2252 O.3     1  LIG1      -0.7200000000000006
     13 O           1.2171   -0.1113   -2.4230 O.3     1  LIG1      -0.7400000000000002
     14 O           1.1248   -2.4486   -3.4483 O.2     1  LIG1      -0.6899999999999995
     15 O           0.0680   -2.0286   -1.1532 O.3     1  LIG1      -0.5999999999999996
     16 P           0.2709   -1.4501   -2.7282 P.3     1  LIG1       1.0600000000000005
     17 H          -0.7809    3.6432    3.1693 H       1  LIG1       0.16000000000000003
     18 H          -0.6172    4.3933    1.5469 H       1  LIG1          0.14
     19 H           0.8088    3.7890    2.4576 H       1  LIG1       0.16000000000000003
     20 H          -1.6509    0.9471   -1.1679 H       1  LIG1          0.13
     21 H           0.5493   -2.2441    1.4516 H       1  LIG1       0.09999999999999998
     22 H          -1.2982   -2.2925    0.3284 H       1  LIG1       0.16000000000000003
     23 H          -1.8700   -1.3271   -1.0467 H       1  LIG1       0.16000000000000003
     24 H           0.7021    0.4670   -1.8323 H       1  LIG1       0.43000000000000005
@<TRIPOS>BOND
     1    14    16    2
     2    12    16    1
     3    16    13    1
     4    16    15    1
     5    13    24    1
     6    20     2    1
     7    15     4    1
     8    23     4    1
     9     4    22    1
    10     4     6    1
    11     2     6    2
    12     2     9    1
    13     6     7    1
    14     9     5    2
    15    21     3    1
    16    18     1    1
    17     5     1    1
    18     5     8    1
    19     7     3    1
    20     7     8    1
    21     3    10    2
    22     1    19    1
    23     1    17    1
    24     8    11    2
