@<TRIPOS>MOLECULE
NHNBFGGVMKEFGY-UHFFFAOYSA-N	6044923	-280.44634102961805
 4 3 0 0 0
SMALL
MULLIKEN NwChem

@<TRIPOS>ATOM
      1 N          -0.0000    0.0000    0.0001 N.pl3   1  LIG1       0.6699999999999999
      2 O          -0.6323    0.9396   -0.5632 O.2     1  LIG1      -0.5600000000000005
      3 O          -0.6323   -0.9396    0.5631 O.2     1  LIG1      -0.5600000000000005
      4 O           1.2646   -0.0000   -0.0000 O.2     1  LIG1      -0.5600000000000005
@<TRIPOS>BOND
     1     2     1    2
     2     4     1    2
     3     1     3    1
