@<TRIPOS>MOLECULE
NHNODHRSCRALBF-NQNBQJKNSA-J	11095234	-4173.412087037286
 93 95 0 0 0
SMALL
MULLIKEN NwChem

@<TRIPOS>ATOM
      1 C          12.9493   -1.3434    2.8444 C.3     1  LIG1      -0.4500000000000002
      2 C          12.9270   -0.0007   -0.7762 C.3     1  LIG1      -0.5700000000000003
      3 C           3.8261   -0.6762   -0.1383 C.3     1  LIG1      -0.46999999999999975
      4 C           3.0026   -1.9498   -2.1514 C.3     1  LIG1      -0.46999999999999975
      5 C           8.4156    0.8323   -1.2051 C.3     1  LIG1       -0.33999999999999986
      6 C           6.9582    0.5642   -0.7354 C.3     1  LIG1       -0.1299999999999999
      7 C           9.5954    1.4195    1.3689 C.3     1  LIG1       -0.13999999999999968
      8 C          10.6188    2.5452    1.0780 C.3     1  LIG1       -0.4299999999999997
      9 C          -4.7868    0.0692   -0.6862 C.3     1  LIG1       -0.08000000000000007
     10 C           2.1724    0.3731   -1.7245 C.3     1  LIG1       -0.05999999999999961
     11 C         -12.2727    0.9256    1.7301 C.ar    1  LIG1       0.15000000000000036
     12 C          -9.1187    1.5587   -1.1819 C.ar    1  LIG1       0.21999999999999975
     13 C          12.6838   -0.2835    1.7702 C.3     1  LIG1       -0.2699999999999996
     14 C          13.4693   -0.6045    0.4842 C.2     1  LIG1       0.4500000000000002
     15 C          -5.9179   -0.5560    0.1256 C.3     1  LIG1       0.08999999999999986
     16 C           9.5223   -0.0293   -0.5499 C.2     1  LIG1       0.4900000000000002
     17 C         -11.0588    1.9172   -0.4158 C.ar    1  LIG1       0.1900000000000004
     18 C          -8.1093   -1.4821   -0.5333 C.3     1  LIG1       0.08999999999999986
     19 C          -6.5625   -1.8139   -0.5196 C.3     1  LIG1       0.08000000000000007
     20 C           4.5602    0.0008   -2.4943 C.3     1  LIG1       0.05999999999999961
     21 C         -12.3458    2.3522   -0.0706 C.ar    1  LIG1       0.4400000000000004
     22 C         -10.4778    0.9525    0.4309 C.ar    1  LIG1       0.5300000000000002
     23 C           5.0909    1.4092   -2.0321 C.2     1  LIG1       0.46999999999999975
     24 C          -8.1923   -0.2146    0.3542 C.3     1  LIG1          0.25
     25 C          13.1252    1.0743    2.2945 C.2     1  LIG1       0.29000000000000004
     26 C           3.3898   -0.5619   -1.6076 C.3     1  LIG1       0.07000000000000028
     27 N         -13.0252    3.2793   -0.8439 N.pl3   1  LIG1      -0.7800000000000002
     28 N           9.9532    0.2034    0.6971 N.am    1  LIG1      -0.5499999999999998
     29 N           6.0890    1.6199   -1.2098 N.am    1  LIG1      -0.5999999999999996
     30 N         -12.9524    1.8511    1.0158 N.ar    1  LIG1        -0.54
     31 N         -11.0576    0.4266    1.5208 N.ar    1  LIG1        -0.54
     32 N         -10.1894    2.2920   -1.4226 N.ar    1  LIG1      -0.5800000000000001
     33 N          -9.2252    0.7336   -0.0866 N.ar    1  LIG1      -0.5099999999999998
     34 O          14.4188   -1.3775    0.4976 O.2     1  LIG1      -0.5099999999999998
     35 O          10.0122   -0.9600   -1.2527 O.2     1  LIG1      -0.6899999999999995
     36 O          -8.9888   -2.4885   -0.1517 O.3     1  LIG1      -0.6999999999999993
     37 O           4.1189    0.1693   -3.8421 O.3     1  LIG1      -0.7100000000000009
     38 O           4.4000    2.3442   -2.5747 O.2     1  LIG1      -0.7200000000000006
     39 O          14.1359    1.2192    2.9631 O.2     1  LIG1      -0.4900000000000002
     40 O          -7.7095   -2.7264    2.1211 O.3     1  LIG1      -0.7300000000000004
     41 O          -6.2863   -4.9183    1.7751 O.2     1  LIG1      -0.6600000000000001
     42 O          -5.1970   -2.6146    2.3717 O.3     1  LIG1        -0.75
     43 O          -2.7380   -2.2655    1.0737 O.3     1  LIG1      -0.6400000000000006
     44 O          -2.4713    0.3625    1.0559 O.2     1  LIG1      -0.7200000000000006
     45 O          -0.9570    1.4315   -0.7758 O.3     1  LIG1      -0.7200000000000006
     46 O          -0.6356    0.0442   -2.9395 O.2     1  LIG1      -0.6099999999999994
     47 O          -3.7110   -0.8397   -0.8564 O.3     1  LIG1      -0.5800000000000001
     48 O           1.0488   -0.1863   -0.9677 O.3     1  LIG1      -0.5399999999999991
     49 O          -6.9633    0.4537    0.2046 O.3     1  LIG1      -0.5500000000000007
     50 O          -6.2175   -3.0524    0.0509 O.3     1  LIG1      -0.6099999999999994
     51 O          -1.2168   -1.1131   -0.6401 O.3     1  LIG1      -0.6300000000000008
     52 P          -6.4273   -3.4330    1.6756 P.3     1  LIG1       1.0999999999999996
     53 P          -2.5665   -0.9734    0.3382 P.3     1  LIG1       1.2100000000000009
     54 P          -0.4616    0.0716   -1.4661 P.3     1  LIG1       1.1899999999999995
     55 S          12.2076    2.6283    2.0491 S.3     1  LIG1      0.02999999999999936
     56 H          14.0131   -1.3954    3.0906 H       1  LIG1       0.15000000000000002
     57 H          12.6278   -2.3215    2.4725 H       1  LIG1       0.16000000000000003
     58 H          12.3812   -1.1162    3.7541 H       1  LIG1       0.15000000000000002
     59 H          12.6908    1.0604   -0.6387 H       1  LIG1       0.18000000000000005
     60 H          11.9537   -0.4943   -1.0039 H       1  LIG1       0.22999999999999998
     61 H          13.6350   -0.1392   -1.5995 H       1  LIG1       0.15000000000000002
     62 H           2.9979   -1.0495    0.4748 H       1  LIG1          0.14
     63 H           4.1460    0.2974    0.2474 H       1  LIG1       0.15000000000000002
     64 H           4.6734   -1.3660   -0.0368 H       1  LIG1       0.15000000000000002
     65 H           2.1405   -2.3559   -1.6116 H       1  LIG1       0.15000000000000002
     66 H           2.7503   -1.8752   -3.2141 H       1  LIG1          0.14
     67 H           3.8434   -2.6494   -2.0442 H       1  LIG1          0.14
     68 H           8.6020    1.9054   -1.0577 H       1  LIG1          0.12
     69 H           8.4678    0.6512   -2.2835 H       1  LIG1       0.10999999999999999
     70 H           6.6994   -0.4645   -1.0443 H       1  LIG1          0.12
     71 H           6.9500    0.5410    0.3690 H       1  LIG1       0.10999999999999999
     72 H           9.5670    1.2598    2.4603 H       1  LIG1          0.13
     73 H           8.6103    1.8390    1.1009 H       1  LIG1          0.13
     74 H          10.2062    3.5350    1.3253 H       1  LIG1       0.18999999999999995
     75 H          10.8616    2.5340    0.0121 H       1  LIG1       0.19999999999999996
     76 H          -4.4493    0.9921   -0.2019 H       1  LIG1       0.17000000000000004
     77 H          -5.1609    0.3138   -1.6902 H       1  LIG1       0.17000000000000004
     78 H           1.8820    0.4705   -2.7718 H       1  LIG1       0.16000000000000003
     79 H           2.4009    1.3634   -1.3235 H       1  LIG1       0.16000000000000003
     80 H         -12.7977    0.5437    2.6048 H       1  LIG1       0.17000000000000004
     81 H          -8.1967    1.5849   -1.7446 H       1  LIG1       0.20999999999999996
     82 H          11.6053   -0.2468    1.4598 H       1  LIG1       0.21999999999999997
     83 H          -5.5778   -0.7916    1.1363 H       1  LIG1       0.18999999999999995
     84 H          -8.3785   -1.1790   -1.5563 H       1  LIG1       0.17000000000000004
     85 H          -6.2166   -1.8895   -1.5567 H       1  LIG1       0.17000000000000004
     86 H           5.3529   -0.7584   -2.4928 H       1  LIG1          0.12
     87 H          -8.4107   -0.5006    1.3886 H       1  LIG1       0.18000000000000005
     88 H         -13.7310    3.7927   -0.3309 H       1  LIG1          0.36
     89 H         -12.4182    3.8527   -1.4174 H       1  LIG1          0.37
     90 H          -8.6620   -2.7554    0.7641 H       1  LIG1       0.43999999999999995
     91 H           3.9682    1.1542   -3.8129 H       1  LIG1           0.4
     92 H          -4.3381   -2.6850    1.8809 H       1  LIG1          0.47
     93 H          -1.5094    1.2167    0.0465 H       1  LIG1           0.48
@<TRIPOS>BOND
     1    37    91    1
     2    37    20    1
     3    66     4    1
     4    46    54    2
     5    78    10    1
     6    38    23    2
     7    20    86    1
     8    20    23    1
     9    20    26    1
    10    69     5    1
    11     4    67    1
    12     4    65    1
    13     4    26    1
    14    23    29   am
    15    81    12    1
    16    10    26    1
    17    10    79    1
    18    10    48    1
    19    77     9    1
    20    26     3    1
    21    61     2    1
    22    85    19    1
    23    84    18    1
    24    54    48    1
    25    54    45    1
    26    54    51    1
    27    32    12   ar
    28    32    17   ar
    29    89    27    1
    30    35    16    2
    31    29     6    1
    32     5    68    1
    33     5     6    1
    34     5    16    1
    35    12    33   ar
    36    70     6    1
    37    60     2    1
    38    47     9    1
    39    47    53    1
    40    27    88    1
    41    27    21    1
    42     2    59    1
    43     2    14    1
    44    45    93    1
    45     6    71    1
    46     9    76    1
    47     9    15    1
    48    51    53    1
    49    16    28   am
    50    18    19    1
    51    18    36    1
    52    18    24    1
    53    19    50    1
    54    19    15    1
    55    17    21   ar
    56    17    22   ar
    57    36    90    1
    58     3    64    1
    59     3    63    1
    60     3    62    1
    61    33    24    1
    62    33    22   ar
    63    21    30   ar
    64    75     8    1
    65    50    52    1
    66    15    49    1
    67    15    83    1
    68    49    24    1
    69    53    44    2
    70    53    43    1
    71    24    87    1
    72    22    31   ar
    73    14    34    2
    74    14    13    1
    75    28     7    1
    76    30    11   ar
    77     8    74    1
    78     8     7    1
    79     8    55    1
    80    73     7    1
    81     7    72    1
    82    82    13    1
    83    31    11   ar
    84    52    41    2
    85    52    40    1
    86    52    42    1
    87    11    80    1
    88    13    25    1
    89    13     1    1
    90    92    42    1
    91    55    25    1
    92    25    39    2
    93    57     1    1
    94     1    56    1
    95     1    58    1
