@<TRIPOS>MOLECULE
NHVNXKFIZYSCEB-XLPZGREQSA-J	11095233	-2576.2101746544486
 42 42 0 0 0
SMALL
MULLIKEN NwChem

@<TRIPOS>ATOM
      1 C         -10.2849    1.7386    0.2955 C.3     1  LIG1      -0.5300000000000002
      2 C          -8.0737   -3.2032   -0.4974 C.3     1  LIG1       -0.3200000000000003
      3 C          -9.9880   -0.7102   -0.1722 C.ar    1  LIG1       0.009999999999999787
      4 C          -8.9476   -4.0012    2.9026 C.3     1  LIG1       -0.05999999999999961
      5 C         -10.4105    0.5131   -0.5621 C.ar    1  LIG1       0.040000000000000036
      6 C          -7.7703   -4.2364    0.6026 C.3     1  LIG1       0.11000000000000032
      7 C          -9.1039   -4.2948    1.4057 C.3     1  LIG1       0.09999999999999964
      8 C          -9.6098   -3.0958   -0.5200 C.3     1  LIG1       0.28000000000000025
      9 C         -11.0470    0.6415   -1.8938 C.ar    1  LIG1       0.46999999999999975
     10 C         -10.7626   -1.6946   -2.2734 C.ar    1  LIG1       0.6600000000000001
     11 N         -11.1912   -0.4753   -2.6680 N.ar    1  LIG1      -0.6699999999999999
     12 N         -10.1372   -1.8161   -0.9698 N.ar    1  LIG1         -0.5
     13 O          -7.4359   -5.4873    0.0374 O.3     1  LIG1      -0.7300000000000004
     14 O         -11.4337    1.7752   -2.2678 O.2     1  LIG1      -0.6699999999999999
     15 O         -10.8556   -2.7301   -2.9555 O.2     1  LIG1      -0.6500000000000004
     16 O          67.6929   31.3272  -10.8061 O.3     2  LIG2      -0.6500000000000004
     17 O          67.0773   28.8084  -10.5666 O.2     2  LIG2      -0.6500000000000004
     18 O          68.6030   29.9494   -8.7873 O.3     2  LIG2      -0.6500000000000004
     19 O          -7.2550   -6.9329    2.3422 O.2     1  LIG1      -0.7400000000000002
     20 O          -9.4279   -6.7454    3.8040 O.3     1  LIG1      -0.6799999999999997
     21 O          -4.9012   -7.2973    3.6688 O.3     1  LIG1      -0.7599999999999998
     22 O          -6.1439   -9.0205    5.1782 O.2     1  LIG1      -0.6899999999999995
     23 O          -7.8752   -4.7091    3.4932 O.3     1  LIG1      -0.5899999999999999
     24 O          -9.9974   -3.3127    0.8415 O.3     1  LIG1      -0.5600000000000005
     25 O          -4.8696   -6.9658    6.2140 O.3     1  LIG1      -0.6799999999999997
     26 O          -7.0473   -6.5910    4.8831 O.3     1  LIG1      -0.6600000000000001
     27 P          67.7905   30.0278  -10.0530 P.3     2  LIG2       0.9399999999999995
     28 P          -7.9841   -6.3938    3.5836 P.3     1  LIG1       1.1400000000000006
     29 P          -5.6631   -7.5948    5.1012 P.3     1  LIG1       1.0399999999999991
     30 H          -9.7398    2.5333   -0.2330 H       1  LIG1       0.15000000000000002
     31 H          -9.7680    1.5238    1.2413 H       1  LIG1       0.15000000000000002
     32 H         -11.2718    2.1641    0.5288 H       1  LIG1       0.15000000000000002
     33 H          -7.6676   -3.5165   -1.4643 H       1  LIG1       0.16000000000000003
     34 H          -7.6520   -2.2237   -0.2396 H       1  LIG1       0.17000000000000004
     35 H          -9.5379   -0.9042    0.7976 H       1  LIG1       0.18000000000000005
     36 H          -9.8928   -4.2142    3.4186 H       1  LIG1       0.15000000000000002
     37 H          -8.7215   -2.9303    3.0095 H       1  LIG1       0.16000000000000003
     38 H          -6.9642   -3.8888    1.2644 H       1  LIG1          0.14
     39 H          -9.5305   -5.2965    1.2676 H       1  LIG1       0.15000000000000002
     40 H         -10.0447   -3.8485   -1.1823 H       1  LIG1       0.16000000000000003
     41 H          -7.3343   -6.1037    0.8163 H       1  LIG1       0.43999999999999995
     42 H          -5.6132   -7.2622    2.9803 H       1  LIG1       0.44999999999999996
@<TRIPOS>BOND
     1    16    27    1
     2    17    27    2
     3    27    18    1
     4    15    10    2
     5    11    10   ar
     6    11     9   ar
     7    10    12   ar
     8    14     9    2
     9     9     5   ar
    10    33     2    1
    11    40     8    1
    12    12     8    1
    13    12     3   ar
    14     5     3   ar
    15     5     1    1
    16     8     2    1
    17     8    24    1
    18     2    34    1
    19     2     6    1
    20    30     1    1
    21     3    35    1
    22    13     6    1
    23    13    41    1
    24     1    32    1
    25     1    31    1
    26     6    38    1
    27     6     7    1
    28    24     7    1
    29    39     7    1
    30     7     4    1
    31    19    28    2
    32     4    37    1
    33     4    36    1
    34     4    23    1
    35    42    21    1
    36    23    28    1
    37    28    20    1
    38    28    26    1
    39    21    29    1
    40    26    29    1
    41    29    22    2
    42    29    25    1
