@<TRIPOS>MOLECULE
NHZMQXZHNVQTQA-UHFFFAOYSA-O	6044926	-572.3185991933263
 25 25 0 0 0
SMALL
MULLIKEN NwChem

@<TRIPOS>ATOM
      1 C           0.2447    3.4737    0.4169 C.3     1  LIG1            -0.54
      2 C           1.4393   -1.4623    0.2539 C.3     1  LIG1      -0.2599999999999998
      3 C          -1.8357    0.4634    0.2861 C.ar    1  LIG1       -0.03000000000000025
      4 C          -1.5033   -2.0351    0.1442 C.3     1  LIG1       -0.16000000000000014
      5 C          -0.1196    2.0108    0.3550 C.ar    1  LIG1       0.29000000000000004
      6 C          -0.9692   -0.6291    0.2495 C.ar    1  LIG1       0.09999999999999964
      7 C           0.4140   -0.3609    0.2735 C.ar    1  LIG1      0.08999999999999986
      8 C           0.8424    0.9734    0.3035 C.ar    1  LIG1       0.2599999999999998
      9 N           1.5195   -2.0663   -1.1464 N.4     1  LIG1       -0.7300000000000004
     10 N          -1.4247    1.7322    0.3476 N.ar    1  LIG1      -0.5199999999999996
     11 O          -1.1135   -2.6735   -1.1076 O.3     1  LIG1      -0.6500000000000004
     12 O           2.1877    1.1839    0.2629 O.3     1  LIG1      -0.6699999999999999
     13 H          -0.1774    3.9198    1.3230 H       1  LIG1       0.18999999999999995
     14 H          -0.1902    3.9996   -0.4389 H       1  LIG1       0.18999999999999995
     15 H           1.3212    3.6770    0.4168 H       1  LIG1       0.17000000000000004
     16 H           2.4320   -1.0980    0.5149 H       1  LIG1          0.24
     17 H           1.1734   -2.2918    0.9133 H       1  LIG1          0.24
     18 H          -2.9134    0.3105    0.2722 H       1  LIG1       0.17000000000000004
     19 H          -1.1042   -2.6895    0.9248 H       1  LIG1       0.19999999999999996
     20 H          -2.5934   -2.0471    0.2350 H       1  LIG1       0.18999999999999995
     21 H           1.8053   -1.3569   -1.8293 H       1  LIG1      0.43999999999999995
     22 H           2.1836   -2.8467   -1.1970 H       1  LIG1      0.43999999999999995
     23 H           0.5454   -2.4078   -1.3835 H       1  LIG1      0.44999999999999996
     24 H          -1.6957   -2.3444   -1.8127 H       1  LIG1       0.44999999999999996
     25 H           2.3917    2.1236    0.3904 H       1  LIG1       0.45999999999999996
@<TRIPOS>BOND
     1    21     9    1
     2    24    11    1
     3    23     9    1
     4    22     9    1
     5     9     2    1
     6    11     4    1
     7    14     1    1
     8     4    20    1
     9     4     6    1
    10     4    19    1
    11     6     7   ar
    12     6     3   ar
    13     2     7    1
    14     2    16    1
    15     2    17    1
    16    12     8    1
    17    12    25    1
    18    18     3    1
    19     7     8   ar
    20     3    10   ar
    21     8     5   ar
    22    10     5   ar
    23     5     1    1
    24    15     1    1
    25     1    13    1
