@<TRIPOS>MOLECULE
NIFXVRWMHZPIFE-KCLHJWPFSA-N	6044927	-2442.3520785782807
 84 88 0 0 0
SMALL
MULLIKEN NwChem

@<TRIPOS>ATOM
      1 C          -4.9076    0.6961   -3.5258 C.3     1  LIG1       -0.05999999999999961
      2 C           3.0310   -0.0870    3.1750 C.3     1  LIG1       -0.08999999999999986
      3 C          -2.4416    3.1838   -0.2271 C.3     1  LIG1       -0.03000000000000025
      4 C           2.7106   -2.3021   -0.7177 C.3     1  LIG1       -0.07000000000000028
      5 C          -3.5314    0.5244   -2.8784 C.3     1  LIG1       0.11000000000000032
      6 C           4.0984    0.6951    2.3805 C.3     1  LIG1       0.08000000000000007
      7 C          -1.4289    4.0363    0.5445 C.3     1  LIG1       0.08999999999999986
      8 C           1.5450   -3.2291   -0.3547 C.3     1  LIG1       0.1200000000000001
      9 C          -1.5666    4.0617    2.0797 C.3     1  LIG1       0.09999999999999964
     10 C           1.5856   -4.5521   -1.1424 C.3     1  LIG1       0.05999999999999961
     11 C          -3.2103   -0.9496   -2.6201 C.3     1  LIG1       0.08999999999999986
     12 C           3.6317    2.1007    1.9724 C.3     1  LIG1       0.1200000000000001
     13 C           0.3194   -5.3905   -0.9307 C.3     1  LIG1       0.1299999999999999
     14 C          -1.0062    2.8030    2.7452 C.3     1  LIG1       0.09999999999999964
     15 C          -0.9589   -4.5211   -0.8664 C.3     1  LIG1       0.09999999999999964
     16 C           0.2761    2.2661    2.0421 C.3     1  LIG1       0.04999999999999982
     17 C          -1.5363    0.0543   -0.9830 C.3     1  LIG1       0.019999999999999574
     18 C           2.5517    0.7203    0.0881 C.3     1  LIG1       0.04999999999999982
     19 C          -1.8387   -1.0954   -1.9700 C.3     1  LIG1       0.1200000000000001
     20 C           2.9977    2.1040    0.5669 C.3     1  LIG1       0.05999999999999961
     21 C          -2.8222    0.7764   -0.5385 C.3     1  LIG1       0.40000000000000036
     22 C           3.6921   -0.3105    0.2104 C.3     1  LIG1       0.3600000000000003
     23 C          -0.6656   -3.1226   -1.4023 C.3     1  LIG1       0.3200000000000003
     24 C           0.8674    3.3761    1.1430 C.3     1  LIG1       0.34999999999999964
     25 O          -5.9292    0.2615   -2.6432 O.3     1  LIG1      -0.6699999999999999
     26 O           2.7305    0.5460    4.4148 O.3     1  LIG1      -0.6699999999999999
     27 O          -2.9303    4.2731    2.3954 O.3     1  LIG1      -0.6799999999999997
     28 O           2.6679   -5.3803   -0.7148 O.3     1  LIG1      -0.6799999999999997
     29 O          -3.2684   -1.6498   -3.8548 O.3     1  LIG1      -0.6699999999999999
     30 O           4.7489    2.9811    2.0323 O.3     1  LIG1      -0.6799999999999997
     31 O           0.1729   -6.3450   -1.9751 O.3     1  LIG1      -0.6799999999999997
     32 O          -0.7587    3.1607    4.1104 O.3     1  LIG1      -0.6799999999999997
     33 O          -1.4439   -4.4364    0.4686 O.3     1  LIG1      -0.6799999999999997
     34 O          -0.0263    1.1227    1.2828 O.3     1  LIG1      -0.6899999999999995
     35 O          -0.7053    1.0362   -1.5801 O.3     1  LIG1      -0.7100000000000009
     36 O           2.0607    0.7645   -1.2662 O.3     1  LIG1      -0.6699999999999999
     37 O          -2.5486    1.8654    0.3229 O.3     1  LIG1      -0.5399999999999991
     38 O           3.1261   -1.5979    0.4472 O.3     1  LIG1      -0.5199999999999996
     39 O          -3.6122    1.2289   -1.6242 O.3     1  LIG1      -0.5500000000000007
     40 O           4.5924   -0.0296    1.2451 O.3     1  LIG1      -0.5199999999999996
     41 O           0.3085   -2.4980   -0.5477 O.3     1  LIG1      -0.5500000000000007
     42 O          -0.0959    3.6576    0.1392 O.3     1  LIG1      -0.5399999999999991
     43 O          -1.8394   -2.3851   -1.3314 O.3     1  LIG1      -0.5299999999999994
     44 O           2.0355    3.1394    0.3662 O.3     1  LIG1      -0.5399999999999991
     45 H          -4.9611    0.0675   -4.4205 H       1  LIG1       0.17000000000000004
     46 H          -5.0580    1.7455   -3.8289 H       1  LIG1       0.15000000000000002
     47 H           2.1208   -0.2485    2.5815 H       1  LIG1       0.16000000000000003
     48 H           3.4384   -1.0694    3.4231 H       1  LIG1       0.18000000000000005
     49 H          -3.4187    3.6814   -0.1796 H       1  LIG1       0.16000000000000003
     50 H          -2.1091    3.1471   -1.2680 H       1  LIG1       0.17000000000000004
     51 H           2.3630   -1.6193   -1.4993 H       1  LIG1       0.18000000000000005
     52 H           3.5690   -2.8633   -1.1306 H       1  LIG1       0.15000000000000002
     53 H          -2.7539    0.9797   -3.5055 H       1  LIG1       0.15000000000000002
     54 H           4.9699    0.8194    3.0317 H       1  LIG1       0.17000000000000004
     55 H          -1.6007    5.0659    0.1955 H       1  LIG1       0.17000000000000004
     56 H           1.6210   -3.4859    0.7104 H       1  LIG1       0.17000000000000004
     57 H          -0.9659    4.9074    2.4494 H       1  LIG1       0.16000000000000003
     58 H           1.6787   -4.3421   -2.2179 H       1  LIG1       0.16000000000000003
     59 H          -3.9755   -1.3253   -1.9231 H       1  LIG1       0.16000000000000003
     60 H           2.8757    2.4441    2.6901 H       1  LIG1          0.14
     61 H           0.4127   -5.8842    0.0475 H       1  LIG1       0.15000000000000002
     62 H          -1.7568    2.0095    2.6674 H       1  LIG1       0.16000000000000003
     63 H          -1.7327   -4.9939   -1.4856 H       1  LIG1       0.16000000000000003
     64 H           0.9667    1.9576    2.8339 H       1  LIG1          0.14
     65 H          -1.0760   -0.3880   -0.0942 H       1  LIG1       0.18000000000000005
     66 H           1.7082    0.3589    0.6691 H       1  LIG1       0.20999999999999996
     67 H          -1.0718   -1.0622   -2.7509 H       1  LIG1       0.17000000000000004
     68 H           3.8176    2.4058   -0.1017 H       1  LIG1       0.18000000000000005
     69 H          -3.4076    0.0758    0.0754 H       1  LIG1       0.16000000000000003
     70 H           4.2884   -0.3269   -0.7117 H       1  LIG1       0.16000000000000003
     71 H          -0.2872   -3.1513   -2.4368 H       1  LIG1       0.17000000000000004
     72 H           1.0786    4.2688    1.7567 H       1  LIG1       0.16000000000000003
     73 H          -5.7647    0.7403   -1.8101 H       1  LIG1       0.43000000000000005
     74 H           2.3590    1.4249    4.2343 H       1  LIG1       0.43999999999999995
     75 H          -2.9817    4.3593    3.3615 H       1  LIG1       0.43000000000000005
     76 H           3.4962   -4.8811   -0.7670 H       1  LIG1       0.43999999999999995
     77 H          -3.3073   -2.5918   -3.6332 H       1  LIG1       0.43999999999999995
     78 H           4.4435    3.8528    1.7343 H       1  LIG1       0.43999999999999995
     79 H           0.9687   -6.8999   -1.9531 H       1  LIG1       0.43000000000000005
     80 H          -0.7044    2.3327    4.6134 H       1  LIG1       0.43999999999999995
     81 H          -1.1931   -3.5635    0.8169 H       1  LIG1       0.43000000000000005
     82 H          -0.4487    1.4586    0.4656 H       1  LIG1          0.47
     83 H           0.2449    0.7980   -1.4761 H       1  LIG1       0.44999999999999996
     84 H           2.4480    1.5330   -1.7179 H       1  LIG1       0.43999999999999995
@<TRIPOS>BOND
     1    45     1    1
     2    29    77    1
     3    29    11    1
     4    46     1    1
     5     1     5    1
     6     1    25    1
     7    53     5    1
     8     5    11    1
     9     5    39    1
    10    67    19    1
    11    25    73    1
    12    11    19    1
    13    11    59    1
    14    71    23    1
    15    58    10    1
    16    31    79    1
    17    31    13    1
    18    19    43    1
    19    19    17    1
    20    84    36    1
    21    39    21    1
    22    35    83    1
    23    35    17    1
    24    51     4    1
    25    63    15    1
    26    23    43    1
    27    23    15    1
    28    23    41    1
    29    50     3    1
    30    36    18    1
    31    10    13    1
    32    10    28    1
    33    10     8    1
    34    52     4    1
    35    17    21    1
    36    17    65    1
    37    13    15    1
    38    13    61    1
    39    15    33    1
    40    76    28    1
    41     4     8    1
    42     4    38    1
    43    70    22    1
    44    41     8    1
    45    21    69    1
    46    21    37    1
    47     8    56    1
    48     3    49    1
    49     3    37    1
    50     3     7    1
    51    68    20    1
    52    18    22    1
    53    18    20    1
    54    18    66    1
    55    42     7    1
    56    42    24    1
    57    55     7    1
    58    22    38    1
    59    22    40    1
    60    44    20    1
    61    44    24    1
    62    82    34    1
    63    33    81    1
    64     7     9    1
    65    20    12    1
    66    24    72    1
    67    24    16    1
    68    40     6    1
    69    34    16    1
    70    78    30    1
    71    12    30    1
    72    12     6    1
    73    12    60    1
    74    16    14    1
    75    16    64    1
    76     9    27    1
    77     9    57    1
    78     9    14    1
    79     6    54    1
    80     6     2    1
    81    27    75    1
    82    47     2    1
    83    62    14    1
    84    14    32    1
    85     2    48    1
    86     2    26    1
    87    32    80    1
    88    74    26    1
