@<TRIPOS>MOLECULE
NIOYUNMRJMEDGI-UHFFFAOYSA-N	6044928	-703.8312819969169
 49 48 0 0 0
SMALL
MULLIKEN NwChem

@<TRIPOS>ATOM
      1 C           3.4232    0.0396   -6.4901 C.3     1  LIG1      -0.45999999999999996
      2 C           3.5069   -0.9143   -5.2930 C.3     1  LIG1      -0.2599999999999998
      3 C           3.8205   -0.2152   -3.9595 C.3     1  LIG1      -0.2599999999999998
      4 C           2.8060    0.8596   -3.5287 C.3     1  LIG1      -0.2699999999999996
      5 C           1.3500    0.3748   -3.4175 C.3     1  LIG1      -0.2699999999999996
      6 C           1.1255   -0.8016   -2.4514 C.3     1  LIG1      -0.2699999999999996
      7 C           1.5841   -0.5521   -1.0036 C.3     1  LIG1      -0.2699999999999996
      8 C           0.9611    0.6809   -0.3261 C.3     1  LIG1      -0.2699999999999996
      9 C          -0.5767    0.6916   -0.2778 C.3     1  LIG1      -0.2699999999999996
     10 C          -1.2160   -0.5216    0.4203 C.3     1  LIG1      -0.2699999999999996
     11 C          -0.7517   -0.7590    1.8680 C.3     1  LIG1      -0.2699999999999996
     12 C          -0.9554    0.4321    2.8202 C.3     1  LIG1      -0.2699999999999996
     13 C          -2.4037    0.9406    2.9270 C.3     1  LIG1      -0.28000000000000025
     14 C          -3.4420   -0.1155    3.3470 C.3     1  LIG1      -0.28000000000000025
     15 C          -3.1434   -0.8454    4.6797 C.3     1  LIG1       -0.33999999999999986
     16 C          -3.0190    0.1226    5.8338 C.2     1  LIG1       0.2599999999999998
     17 O          -3.8938    0.3308    6.6467 O.2     1  LIG1      -0.46000000000000085
     18 H           2.5906    0.7449   -6.3877 H       1  LIG1       0.15000000000000002
     19 H           3.2753   -0.5109   -7.4261 H       1  LIG1          0.14
     20 H           4.3444    0.6278   -6.5895 H       1  LIG1          0.14
     21 H           2.5653   -1.4731   -5.2060 H       1  LIG1          0.14
     22 H           4.2854   -1.6652   -5.4837 H       1  LIG1          0.13
     23 H           3.9016   -0.9764   -3.1718 H       1  LIG1          0.14
     24 H           4.8128    0.2529   -4.0301 H       1  LIG1          0.13
     25 H           3.1277    1.2744   -2.5642 H       1  LIG1          0.13
     26 H           2.8401    1.6980   -4.2367 H       1  LIG1          0.13
     27 H           0.7235    1.2229   -3.1108 H       1  LIG1          0.14
     28 H           0.9859    0.0831   -4.4117 H       1  LIG1          0.13
     29 H           0.0576   -1.0578   -2.4571 H       1  LIG1          0.13
     30 H           1.6453   -1.6908   -2.8319 H       1  LIG1          0.13
     31 H           1.3612   -1.4478   -0.4085 H       1  LIG1          0.13
     32 H           2.6767   -0.4459   -0.9804 H       1  LIG1          0.14
     33 H           1.3594    0.7560    0.6946 H       1  LIG1          0.14
     34 H           1.2983    1.5894   -0.8422 H       1  LIG1          0.13
     35 H          -0.9027    1.6139    0.2213 H       1  LIG1          0.13
     36 H          -0.9736    0.7530   -1.2996 H       1  LIG1          0.14
     37 H          -2.3073   -0.3996    0.4008 H       1  LIG1          0.14
     38 H          -1.0101   -1.4289   -0.1627 H       1  LIG1          0.14
     39 H          -1.2782   -1.6387    2.2628 H       1  LIG1          0.14
     40 H           0.3129   -1.0265    1.8702 H       1  LIG1          0.14
     41 H          -0.5902    0.1496    3.8172 H       1  LIG1          0.14
     42 H          -0.3193    1.2679    2.5017 H       1  LIG1          0.14
     43 H          -2.4293    1.7815    3.6331 H       1  LIG1          0.14
     44 H          -2.7162    1.3572    1.9609 H       1  LIG1       0.15000000000000002
     45 H          -4.4247    0.3649    3.4311 H       1  LIG1       0.15000000000000002
     46 H          -3.5358   -0.8755    2.5618 H       1  LIG1       0.16000000000000003
     47 H          -3.9558   -1.5431    4.9078 H       1  LIG1       0.16000000000000003
     48 H          -2.2082   -1.4140    4.5902 H       1  LIG1       0.18000000000000005
     49 H          -2.0540    0.6771    5.8913 H       1  LIG1           0.14
@<TRIPOS>BOND
     1    19     1    1
     2    20     1    1
     3     1    18    1
     4     1     2    1
     5    22     2    1
     6     2    21    1
     7     2     3    1
     8    28     5    1
     9    26     4    1
    10    24     3    1
    11     3     4    1
    12     3    23    1
    13     4     5    1
    14     4    25    1
    15     5    27    1
    16     5     6    1
    17    30     6    1
    18    29     6    1
    19     6     7    1
    20    36     9    1
    21     7    32    1
    22     7    31    1
    23     7     8    1
    24    34     8    1
    25     8     9    1
    26     8    33    1
    27     9    35    1
    28     9    10    1
    29    38    10    1
    30    37    10    1
    31    10    11    1
    32    11    40    1
    33    11    39    1
    34    11    12    1
    35    44    13    1
    36    42    12    1
    37    46    14    1
    38    12    13    1
    39    12    41    1
    40    13    14    1
    41    13    43    1
    42    14    45    1
    43    14    15    1
    44    48    15    1
    45    15    47    1
    46    15    16    1
    47    16    49    1
    48    16    17    2
