@<TRIPOS>MOLECULE
NIPZZXUFJPQHNH-UHFFFAOYSA-M	6044929	-452.37742562676056
 12 12 0 0 0
SMALL
MULLIKEN NwChem

@<TRIPOS>ATOM
      1 C          -2.4430   -0.1798    0.1246 C.ar    1  LIG1       0.019999999999999574
      2 C          -1.8155    1.0608    0.0611 C.ar    1  LIG1       0.019999999999999574
      3 C          -0.4149   -1.1829    0.0526 C.ar    1  LIG1           0.0
      4 CA          0.2395    0.0668   -0.0130 C.ar    1  LIG1       0.20000000000000018
      5 C           1.8019    0.1130   -0.0919 C.2     1  LIG1           0.5
      6 N          -1.7438   -1.3267    0.1213 N.ar    1  LIG1      -0.4299999999999997
      7 N          -0.4844    1.2005   -0.0075 N.ar    1  LIG1      -0.4900000000000002
      8 O           2.3137    1.2483   -0.1434 O.co2   1  LIG1      -0.6500000000000004
      9 OXT         2.3272   -1.0323   -0.0919 O.co2   1  LIG1      -0.6600000000000001
     10 H          -3.5299   -0.2592    0.1793 H       1  LIG1       0.17000000000000004
     11 H          -2.4083    1.9784    0.0656 H       1  LIG1       0.17000000000000004
     12 H           0.2007   -2.0770    0.0463 H       1  LIG1       0.15000000000000002
@<TRIPOS>BOND
     1     8     5   ar
     2     5     9   ar
     3     5     4    1
     4     4     7   ar
     5     4     3   ar
     6     7     2   ar
     7    12     3    1
     8     3     6   ar
     9     2    11    1
    10     2     1   ar
    11     6     1   ar
    12     1    10    1
