@<TRIPOS>MOLECULE
NIUVHXTXUXOFEB-UHFFFAOYSA-J	11095232	-2216.758674052192
 88 92 0 0 0
SMALL
MULLIKEN NwChem

@<TRIPOS>ATOM
      1 C          -3.3793   -4.0305   -0.9759 C.3     1  LIG1      -0.5599999999999996
      2 C           0.4130   -5.3463   -0.3827 C.3     1  LIG1      -0.5599999999999996
      3 C          -3.4191    4.3288   -0.5182 C.3     1  LIG1      -0.5499999999999998
      4 C           3.1168    3.7785   -0.1496 C.3     1  LIG1      -0.5599999999999996
      5 C          -5.2343   -1.6433   -0.0376 C.3     1  LIG1      -0.33999999999999986
      6 C          -0.7720    5.2655    0.9647 C.3     1  LIG1      -0.34999999999999964
      7 C           3.1273   -4.5485    1.0513 C.3     1  LIG1      -0.33999999999999986
      8 C           5.0026    1.3636   -1.0629 C.3     1  LIG1      -0.33999999999999986
      9 C          -6.2891   -1.7367   -1.1586 C.3     1  LIG1       -0.3600000000000003
     10 C          -1.5137    5.9219    2.1468 C.3     1  LIG1       -0.34999999999999964
     11 C           2.4944   -5.1108    2.3489 C.3     1  LIG1       -0.34999999999999964
     12 C           4.7872    1.6346   -2.5628 C.3     1  LIG1       -0.3700000000000001
     13 C          -0.5788   -2.7027   -2.0475 C.2     1  LIG1      -0.45999999999999996
     14 C          -3.4793    1.0972   -0.4581 C.2     1  LIG1      -0.41000000000000014
     15 C           0.8189    2.4949    1.7946 C.2     1  LIG1      -0.4500000000000002
     16 C           3.6535   -1.3524    0.2657 C.2     1  LIG1      -0.40000000000000036
     17 C          -2.9918   -2.5806   -1.0009 C.ar    1  LIG1      0.03000000000000025
     18 C           1.0615   -3.9886   -0.4417 C.ar    1  LIG1      0.019999999999999574
     19 C          -2.3641    3.4135    0.0321 C.ar    1  LIG1      0.009999999999999787
     20 C           2.9293    2.3366    0.2211 C.ar    1  LIG1      0.019999999999999574
     21 C          -3.8167   -1.4993   -0.5314 C.ar    1  LIG1      0.009999999999999787
     22 C          -1.1590    3.8330    0.6962 C.ar    1  LIG1      0.019999999999999574
     23 C           2.2719   -3.6102    0.2393 C.ar    1  LIG1          0.0
     24 C           3.7599    1.2427   -0.2162 C.ar    1  LIG1      0.03000000000000025
     25 C          -1.7964   -2.0481   -1.4476 C.ar    1  LIG1       0.2699999999999996
     26 C           0.6134   -2.8844   -1.1475 C.ar    1  LIG1       0.28000000000000025
     27 C          -2.3955    2.0297    0.0261 C.ar    1  LIG1       0.2599999999999998
     28 C           1.9343    1.8225    1.0342 C.ar    1  LIG1       0.2699999999999996
     29 C          -3.0883   -0.3338   -0.6996 C.ar    1  LIG1       0.2400000000000002
     30 C          -0.4854    2.6808    1.0669 C.ar    1  LIG1       0.2699999999999996
     31 C           2.5160   -2.2829   -0.0722 C.ar    1  LIG1       0.2400000000000002
     32 C           3.2319    0.0898    0.3431 C.ar    1  LIG1       0.23000000000000043
     33 C          -7.7445   -2.1147   -0.6869 C.2     1  LIG1       0.5199999999999996
     34 C          -1.3747    7.4899    2.2241 C.2     1  LIG1       0.5199999999999996
     35 C           2.8074   -6.6341    2.5930 C.2     1  LIG1           0.5
     36 C           6.1139    1.9568   -3.3544 C.2     1  LIG1       0.5199999999999996
     37 N          -1.8664   -0.6812   -1.2587 N.ar    1  LIG1      -0.6900000000000004
     38 N           1.5019   -1.8580   -0.9102 N.ar    1  LIG1      -0.6799999999999997
     39 N          -1.2466    1.5978    0.6605 N.ar    1  LIG1      -0.7000000000000002
     40 N           2.1296    0.4571    1.0975 N.ar    1  LIG1      -0.6699999999999999
     41 O          -7.8490   -2.6112    0.4656 O.co2   1  LIG1      -0.6699999999999999
     42 O          -8.6435   -1.9027   -1.5437 O.co2   1  LIG1      -0.6999999999999993
     43 O          -1.4724    7.9793    3.3804 O.co2   1  LIG1      -0.6899999999999995
     44 O          -1.2268    8.0848    1.1231 O.co2   1  LIG1      -0.6799999999999997
     45 O           3.0193   -6.9757    3.7836 O.co2   1  LIG1      -0.6899999999999995
     46 O           2.7714   -7.3631    1.5593 O.co2   1  LIG1      -0.6600000000000001
     47 O           7.0786    2.3902   -2.6676 O.co2   1  LIG1      -0.6699999999999999
     48 O           6.0494    1.7726   -4.5974 O.co2   1  LIG1      -0.6999999999999993
     49 H          -2.5632   -4.6766   -1.3182 H       1  LIG1       0.16000000000000003
     50 H          -3.6436   -4.3530    0.0400 H       1  LIG1       0.16000000000000003
     51 H          -4.2606   -4.2276   -1.6013 H       1  LIG1       0.16000000000000003
     52 H           0.0971   -5.6888   -1.3798 H       1  LIG1       0.15000000000000002
     53 H          -0.4883   -5.3421    0.2474 H       1  LIG1       0.15000000000000002
     54 H           1.0964   -6.0952    0.0373 H       1  LIG1       0.15000000000000002
     55 H          -4.0351    3.8289   -1.2768 H       1  LIG1       0.15000000000000002
     56 H          -2.9698    5.2182   -0.9765 H       1  LIG1       0.16000000000000003
     57 H          -4.0992    4.6959    0.2643 H       1  LIG1       0.16000000000000003
     58 H           4.1767    4.0620   -0.1149 H       1  LIG1       0.15000000000000002
     59 H           2.7716    3.9862   -1.1714 H       1  LIG1       0.16000000000000003
     60 H           2.5603    4.4467    0.5178 H       1  LIG1       0.16000000000000003
     61 H          -5.4974   -0.8070    0.6243 H       1  LIG1          0.13
     62 H          -5.3421   -2.5427    0.5801 H       1  LIG1          0.13
     63 H           0.3110    5.3404    1.1345 H       1  LIG1          0.14
     64 H          -0.9702    5.8952    0.0888 H       1  LIG1          0.12
     65 H           4.0855   -4.0632    1.2850 H       1  LIG1          0.13
     66 H           3.3648   -5.4253    0.4351 H       1  LIG1          0.14
     67 H           5.6404    2.1754   -0.6909 H       1  LIG1          0.13
     68 H           5.6132    0.4567   -0.9567 H       1  LIG1          0.13
     69 H          -5.9737   -2.4983   -1.8899 H       1  LIG1          0.14
     70 H          -6.3344   -0.7952   -1.7235 H       1  LIG1       0.10999999999999999
     71 H          -1.1936    5.4813    3.1004 H       1  LIG1       0.10999999999999999
     72 H          -2.5886    5.6959    2.0567 H       1  LIG1          0.14
     73 H           1.4005   -5.0253    2.2801 H       1  LIG1          0.14
     74 H           2.7953   -4.5264    3.2275 H       1  LIG1       0.10999999999999999
     75 H           4.2814    0.7867   -3.0439 H       1  LIG1       0.10999999999999999
     76 H           4.1107    2.4951   -2.6849 H       1  LIG1          0.14
     77 H          -0.2706   -2.1327   -2.9411 H       1  LIG1       0.17000000000000004
     78 H          -0.8756   -3.6909   -2.4151 H       1  LIG1       0.17000000000000004
     79 H          -3.9087    1.5321   -1.3756 H       1  LIG1       0.17000000000000004
     80 H          -4.3136    1.0837    0.2580 H       1  LIG1       0.18000000000000005
     81 H           0.6472    1.9310    2.7278 H       1  LIG1       0.16000000000000003
     82 H           1.1565    3.4871    2.1108 H       1  LIG1       0.18000000000000005
     83 H           4.0994   -1.6884    1.2140 H       1  LIG1       0.16000000000000003
     84 H           4.4545   -1.4235   -0.4833 H       1  LIG1       0.17000000000000004
     85 H          -1.1480   -0.0162   -1.5045 H       1  LIG1          0.36
     86 H           1.4684   -0.9297   -1.3062 H       1  LIG1          0.36
     87 H          -1.0013    0.6267    0.7849 H       1  LIG1          0.35
     88 H           1.5430   -0.2029    1.5865 H       1  LIG1           0.36
@<TRIPOS>BOND
     1    48    36   ar
     2    36    47   ar
     3    36    12    1
     4    75    12    1
     5    77    13    1
     6    76    12    1
     7    12     8    1
     8    78    13    1
     9    13    25    2
    10    13    26    1
    11    69     9    1
    12    70     9    1
    13    51     1    1
    14    42    33   ar
    15    85    37    1
    16    25    37   ar
    17    25    17   ar
    18    52     2    1
    19    79    14    1
    20    49     1    1
    21    86    38    1
    22    55     3    1
    23    37    29   ar
    24    59     4    1
    25     9    33    1
    26     9     5    1
    27    26    38   ar
    28    26    18   ar
    29     8    68    1
    30     8    67    1
    31     8    24    1
    32    17     1    1
    33    17    21   ar
    34    56     3    1
    35     1    50    1
    36    38    31   ar
    37    29    21   ar
    38    29    14    2
    39    33    41   ar
    40    21     5    1
    41     3    19    1
    42     3    57    1
    43    84    16    1
    44    14    27    1
    45    14    80    1
    46    18     2    1
    47    18    23   ar
    48     2    54    1
    49     2    53    1
    50    24    20   ar
    51    24    32   ar
    52     4    58    1
    53     4    20    1
    54     4    60    1
    55    31    23   ar
    56    31    16    2
    57     5    62    1
    58     5    61    1
    59    27    19   ar
    60    27    39   ar
    61    19    22   ar
    62    64     6    1
    63    20    28   ar
    64    23     7    1
    65    16    32    1
    66    16    83    1
    67    32    40   ar
    68    66     7    1
    69    39    87    1
    70    39    30   ar
    71    22     6    1
    72    22    30   ar
    73     6    63    1
    74     6    10    1
    75    28    40   ar
    76    28    15    1
    77     7    65    1
    78     7    11    1
    79    30    15    2
    80    40    88    1
    81    44    34   ar
    82    46    35   ar
    83    15    82    1
    84    15    81    1
    85    72    10    1
    86    10    34    1
    87    10    71    1
    88    34    43   ar
    89    73    11    1
    90    11    35    1
    91    11    74    1
    92    35    45   ar
