@<TRIPOS>MOLECULE
NIXOWILDQLNWCW-UHFFFAOYSA-M	6044931	-266.6640092324091
 8 7 0 0 0
SMALL
MULLIKEN NwChem

@<TRIPOS>ATOM
      1 C           1.6864   -0.6323    0.6402 C.2     1  LIG1      -0.3600000000000003
      2 C           0.9572    0.1539   -0.1559 C.2     1  LIG1       -0.16000000000000014
      3 C          -0.5889    0.1703   -0.1726 C.2     1  LIG1       0.4900000000000002
      4 O          -1.0812    0.9856   -0.9973 O.co2   1  LIG1      -0.6899999999999995
      5 O          -1.1603   -0.6173    0.6244 O.co2   1  LIG1      -0.6799999999999997
      6 H           1.1682   -1.3048    1.3217 H       1  LIG1          0.14
      7 H           2.7782   -0.6360    0.6436 H       1  LIG1       0.15000000000000002
      8 H           1.4405    0.8427   -0.8540 H       1  LIG1       0.10999999999999999
@<TRIPOS>BOND
     1     4     3   ar
     2     8     2    1
     3     3     2    1
     4     3     5   ar
     5     2     1    2
     6     1     7    1
     7     1     6    1
