@<TRIPOS>MOLECULE
NJMGRJLQRLFQQX-HYXAFXHYSA-L	6044932	-572.6229151785831
 19 18 0 0 0
SMALL
MULLIKEN NwChem

@<TRIPOS>ATOM
      1 C           2.5361    0.5613    1.2184 C.3     1  LIG1      -0.46999999999999975
      2 C           2.4278   -1.2548   -0.5337 C.3     1  LIG1      -0.45999999999999996
      3 C          -0.3811    0.7073   -0.9453 C.2     1  LIG1       -0.3099999999999996
      4 C           1.8606    0.1104   -0.0917 C.3     1  LIG1      -0.1200000000000001
      5 C           0.3275    0.0802    0.0171 C.2     1  LIG1       0.08999999999999986
      6 C          -1.8795    0.8999   -1.2483 C.2     1  LIG1       0.4800000000000004
      7 C          -0.2734   -0.6987    1.2158 C.2     1  LIG1       0.4500000000000002
      8 O          -2.2509    2.1061   -1.1723 O.co2   1  LIG1      -0.6899999999999995
      9 O          -2.5194   -0.0945   -1.6720 O.co2   1  LIG1      -0.6799999999999997
     10 O           0.4764   -1.6114    1.7116 O.co2   1  LIG1      -0.6699999999999999
     11 O          -1.4057   -0.3606    1.6221 O.co2   1  LIG1      -0.6699999999999999
     12 H           2.2625   -0.1465    2.0065 H       1  LIG1       0.15000000000000002
     13 H           2.1849    1.5608    1.5093 H       1  LIG1          0.13
     14 H           3.6353    0.5982    1.1193 H       1  LIG1          0.13
     15 H           2.1053   -1.9964    0.2028 H       1  LIG1       0.16000000000000003
     16 H           2.0215   -1.5331   -1.5153 H       1  LIG1          0.12
     17 H           3.5310   -1.2405   -0.6074 H       1  LIG1          0.12
     18 H           0.2165    1.2294   -1.7084 H       1  LIG1          0.12
     19 H           2.1241    0.8480   -0.8693 H       1  LIG1       0.10999999999999999
@<TRIPOS>BOND
     1    18     3    1
     2     9     6   ar
     3    16     2    1
     4     6     8   ar
     5     6     3    1
     6     3     5    2
     7    19     4    1
     8    17     2    1
     9     2     4    1
    10     2    15    1
    11     4     5    1
    12     4     1    1
    13     5     7    1
    14    14     1    1
    15     7    11   ar
    16     7    10   ar
    17     1    13    1
    18     1    12    1
