@<TRIPOS>MOLECULE
NMDWGEGFJUBKLB-YFKPBYRVSA-M	6044934	-495.71538502154436
 16 15 0 0 0
SMALL
MULLIKEN NwChem

@<TRIPOS>ATOM
      1 C           1.2496    0.9367    1.6493 C.3     1  LIG1            -0.54
      2 C          -1.8068    0.4332   -0.7102 C.3     1  LIG1      -0.45999999999999996
      3 C           0.2565    1.2035    0.5237 C.2     1  LIG1       0.45999999999999996
      4 C           0.3122   -1.0241   -0.6237 C.2     1  LIG1          0.54
      5 C          -0.6295    0.0222    0.1652 C.3     1  LIG1       0.16000000000000014
      6 O           0.1980    2.2918   -0.0309 O.2     1  LIG1      -0.5299999999999994
      7 O           0.5532   -2.0567    0.0682 O.co2   1  LIG1      -0.6600000000000001
      8 O           0.6840   -0.7023   -1.7622 O.co2   1  LIG1      -0.6300000000000008
      9 O          -1.0580   -0.6126    1.3672 O.3     1  LIG1      -0.7200000000000006
     10 H           1.6925   -0.0581    1.5348 H       1  LIG1       0.17000000000000004
     11 H           0.7127    0.9352    2.6043 H       1  LIG1       0.18999999999999995
     12 H           2.0196    1.7135    1.6561 H       1  LIG1       0.16000000000000003
     13 H          -1.4319    0.8372   -1.6526 H       1  LIG1       0.15000000000000002
     14 H          -2.4270   -0.4465   -0.9153 H       1  LIG1       0.15000000000000002
     15 H          -2.4232    1.1925   -0.2131 H       1  LIG1       0.15000000000000002
     16 H          -0.5533   -1.4676    1.2799 H       1  LIG1            0.4
@<TRIPOS>BOND
     1     8     4   ar
     2    13     2    1
     3    14     2    1
     4     2    15    1
     5     2     5    1
     6     4     7   ar
     7     4     5    1
     8     6     3    2
     9     5     3    1
    10     5     9    1
    11     3     1    1
    12    16     9    1
    13    10     1    1
    14     1    12    1
    15     1    11    1
