@<TRIPOS>MOLECULE
NMPZCCZXCOMSDQ-XVFCMESISA-M	6044935	-1381.7811565968395
 31 33 0 0 0
SMALL
MULLIKEN NwChem

@<TRIPOS>ATOM
      1 C          -2.0606   -3.3355   -1.2820 C.ar    1  LIG1      -0.23000000000000043
      2 C          -2.0162   -2.0167   -1.0319 C.ar    1  LIG1       0.07000000000000028
      3 C           2.3242    0.3295   -1.4597 C.3     1  LIG1       -0.07000000000000028
      4 C           1.1721    1.1086   -0.8269 C.3     1  LIG1       0.1200000000000001
      5 C          -0.9524   -4.1906   -0.8357 C.ar    1  LIG1       0.4299999999999997
      6 C           1.1404    1.0661    0.7130 C.3     1  LIG1       0.08000000000000007
      7 C          -0.2557    0.5056    1.0702 C.3     1  LIG1       0.08000000000000007
      8 C          -0.8512   -0.0289   -0.2439 C.3     1  LIG1       0.23000000000000043
      9 C           0.1752   -2.2949    0.0319 C.ar    1  LIG1       0.6900000000000004
     10 N          -1.0361   -5.4691   -1.0643 N.pl3   1  LIG1        -0.79
     11 N           0.1284   -3.5956   -0.2019 N.ar    1  LIG1      -0.6600000000000001
     12 N          -0.9531   -1.4548   -0.3385 N.ar    1  LIG1      -0.4800000000000004
     13 O           2.2008    0.3367   -2.8790 O.3     1  LIG1      -0.6699999999999999
     14 O           1.1260   -1.6786    0.5764 O.2     1  LIG1      -0.6500000000000004
     15 O          -0.6618    3.8940    0.3783 O.3     1  LIG1      -0.6699999999999999
     16 O          -0.3009    3.7719    2.9224 O.2     1  LIG1      -0.5899999999999999
     17 O          -0.0741    0.5692   -1.2973 O.3     1  LIG1      -0.5299999999999994
     18 O           1.2419    2.4017    1.2851 O.3     1  LIG1      -0.5700000000000003
     19 O          -1.0607    1.6509    1.5053 O.3     1  LIG1      -0.5700000000000003
     20 P          -0.2048    3.0034    1.6626 P.3     1  LIG1       1.1999999999999993
     21 H          -2.8976   -3.7869   -1.8023 H       1  LIG1          0.14
     22 H          -2.7982   -1.3244   -1.3355 H       1  LIG1       0.18999999999999995
     23 H           3.2740    0.8239   -1.2200 H       1  LIG1       0.16000000000000003
     24 H           2.3348   -0.6870   -1.0490 H       1  LIG1       0.16000000000000003
     25 H           1.2176    2.1522   -1.1613 H       1  LIG1       0.17000000000000004
     26 H           1.9393    0.4710    1.1446 H       1  LIG1       0.20999999999999996
     27 H          -0.2510   -0.2247    1.8733 H       1  LIG1       0.20999999999999996
     28 H          -1.8647    0.3710   -0.3464 H       1  LIG1       0.19999999999999996
     29 H          -0.1773   -5.8869   -0.6848 H       1  LIG1          0.26
     30 H           1.3215   -0.0428   -3.0471 H       1  LIG1       0.42000000000000004
     31 H          -0.8138    4.8030    0.6815 H       1  LIG1           0.48
@<TRIPOS>BOND
     1    30    13    1
     2    13     3    1
     3    21     1    1
     4     3    23    1
     5     3    24    1
     6     3     4    1
     7    22     2    1
     8    17     4    1
     9    17     8    1
    10     1     2   ar
    11     1     5   ar
    12    25     4    1
    13    10     5    1
    14    10    29    1
    15     2    12   ar
    16     5    11   ar
    17     4     6    1
    18    28     8    1
    19    12     8    1
    20    12     9   ar
    21     8     7    1
    22    11     9   ar
    23     9    14    2
    24    15    31    1
    25    15    20    1
    26     6     7    1
    27     6    26    1
    28     6    18    1
    29     7    19    1
    30     7    27    1
    31    18    20    1
    32    19    20    1
    33    20    16    2
