@<TRIPOS>MOLECULE
NOKPBJYHPHHWAN-REOHCLBHSA-M	6044937	-1345.2021457226226
 17 16 0 0 0
SMALL
MULLIKEN NwChem

@<TRIPOS>ATOM
      1 C1          0.1590   -1.1564    1.2991 C.3     1  <1>        -0.45999999999999996
      2 C2         -0.2732    0.0490    2.1720 C.3     1  <1>        -0.040000000000000036
      3 C3          0.1496    1.3179    1.4286 C.2     1  <1>        0.5700000000000003
      4 N1         -1.6936   -0.0595    2.5152 N.3     1  <1>         -0.75
      5 O1         -0.8304    1.7867    0.6278 O.3     1  <1>       -0.6300000000000008
      6 O2          1.2672    1.7832    1.5029 O.2     1  <1>       -0.5099999999999998
      7 O3          0.0697    1.1444   -1.7366 O.2     1  <1>       -0.6300000000000008
      8 O4          1.9018   -0.4617   -1.2015 O.3     1  <1>       -0.5899999999999999
      9 O5          0.2088   -0.9903   -2.9925 O.2     1  <1>       -0.5899999999999999
     10 S1         -0.7499   -1.3933   -0.2871 S.3     1  <1>       -0.14000000000000057
     11 S2          0.5363   -0.2829   -1.7401 S.3     1  <1>       1.0299999999999994
     12 H1         -0.0167   -2.0710    1.8757 H       1  <1>        0.21999999999999997
     13 H2          1.2230   -1.0820    1.0553 H       1  <1>        0.21999999999999997
     14 H3          0.3233    0.0004    3.0921 H       1  <1>        0.18000000000000005
     15 H4         -1.9792    0.8014    2.9827 H       1  <1>        0.32999999999999996
     16 H5         -2.2022   -0.0541    1.6289 H       1  <1>        0.32999999999999996
     17 H6         -0.4409    1.8769   -0.2906 H       1  <1>        0.45999999999999996
@<TRIPOS>BOND
     1     9    11    2
     2    11     7    2
     3    11     8    1
     4    11    10    1
     5    17     5    1
     6    10     1    1
     7     5     3    1
     8    13     1    1
     9     1    12    1
    10     1     2    1
    11     3     6    2
    12     3     2    1
    13    16     4    1
    14     2     4    1
    15     2    14    1
    16     4    15    1
