@<TRIPOS>MOLECULE
NOKRNJLENDLSKM-UHFFFAOYSA-M	11095229	-1907.2730915312125
 63 62 0 0 0
SMALL
MULLIKEN NwChem

@<TRIPOS>ATOM
      1 C           6.3410   -2.9162   -0.7410 C.3     1  UNK1      -0.45999999999999996
      2 C           5.1977   -3.7735   -1.2963 C.3     1  UNK1        -0.25
      3 C           3.8430   -3.5972   -0.5884 C.3     1  UNK1      -0.2599999999999998
      4 C           3.2435   -2.1754   -0.6372 C.3     1  UNK1      -0.3099999999999996
      5 C           3.6140   -1.2883    0.5628 C.3     1  UNK1      -0.28000000000000025
      6 C          -3.0613   -1.2782   -0.3528 C.3     1  UNK1      -0.29000000000000004
      7 C          -2.2108   -1.2769   -1.6441 C.3     1  UNK1       -0.33999999999999986
      8 C           4.4146    1.2584   -0.9633 C.3     1  UNK1       -0.3600000000000003
      9 C           4.5610    2.0413   -2.2530 C.2     1  UNK1       0.2699999999999996
     10 CA         -2.7967    2.8135    1.3575 C.3     2  GLY2       -0.23000000000000043
     11 C           0.5323    2.1442   -1.6371 C.3     1  UNK1       -0.4299999999999997
     12 C          -2.6029   -2.3099    0.6933 C.3     1  UNK1       -0.07000000000000028
     13 C          -0.5448    1.1339   -1.1684 C.3     1  UNK1       -0.04999999999999982
     14 C           2.8212    0.0353    0.6378 C.3     1  UNK1       0.16999999999999993
     15 C           2.9602    0.8953   -0.6454 C.3     1  UNK1       -0.3099999999999996
     16 C          -0.7073   -1.3103   -1.3326 C.2     1  UNK1       0.5499999999999998
     17 C          -3.9266    3.8019    1.0426 C.2     2  GLY2       0.5800000000000001
     18 C          -1.1668    1.6055    0.1543 C.2     1  UNK1       0.5499999999999998
     19 C          -3.7553   -2.7006    1.6471 C.2     1  UNK1       0.6100000000000003
     20 N          -1.4331   -1.9396    1.5160 N.3     1  UNK1      -0.8300000000000001
     21 N          -2.2257    2.3261    0.1120 N.2     2  GLY2        -0.54
     22 N           0.0117   -0.1981   -1.1246 N.am    1  UNK1      -0.6399999999999997
     23 O           5.4561    2.8256   -2.4813 O.2     1  UNK1      -0.46000000000000085
     24 O           1.4690   -0.2602    0.9188 O.3     1  UNK1        -0.75
     25 O          -0.1999   -2.4480   -1.1830 O.2     1  UNK1      -0.6400000000000006
     26 OXT        -4.5433    4.4010    1.8955 O.2     2  GLY2      -0.5399999999999991
     27 O          -4.1698    3.9392   -0.2719 O.3     2  GLY2      -0.5999999999999996
     28 O          -0.6119    1.2604    1.3211 O.2     1  UNK1      -0.6600000000000001
     29 O          -4.9066   -2.8512    1.2947 O.2     1  UNK1      -0.5399999999999991
     30 O          -3.3405   -2.9040    2.9057 O.3     1  UNK1      -0.6199999999999992
     31 S           1.9729    2.4697   -0.5350 S.3     1  UNK1      0.009999999999999787
     32 H           6.1576   -1.8483   -0.9033 H       1  UNK1       0.17000000000000004
     33 H           6.4624   -3.0688    0.3388 H       1  UNK1          0.14
     34 H           7.2941   -3.1621   -1.2255 H       1  UNK1          0.14
     35 H           5.0698   -3.5481   -2.3652 H       1  UNK1          0.13
     36 H           5.4885   -4.8326   -1.2423 H       1  UNK1          0.13
     37 H           3.9385   -3.9196    0.4595 H       1  UNK1          0.13
     38 H           3.1313   -4.2921   -1.0526 H       1  UNK1          0.13
     39 H           3.5607   -1.6947   -1.5754 H       1  UNK1          0.13
     40 H           2.1512   -2.2493   -0.6935 H       1  UNK1       0.15000000000000002
     41 H           4.6920   -1.0856    0.5956 H       1  UNK1       0.15000000000000002
     42 H           3.3742   -1.8277    1.4878 H       1  UNK1          0.14
     43 H          -3.0549   -0.2810    0.1043 H       1  UNK1       0.16000000000000003
     44 H          -4.1034   -1.4960   -0.6085 H       1  UNK1       0.16000000000000003
     45 H          -2.5068   -0.4195   -2.2604 H       1  UNK1       0.16000000000000003
     46 H          -2.4235   -2.1876   -2.2132 H       1  UNK1       0.15000000000000002
     47 H           4.8860    1.8267   -0.1530 H       1  UNK1       0.18000000000000005
     48 H           5.0042    0.3372   -1.0895 H       1  UNK1       0.21999999999999997
     49 H           3.7941    1.8087   -3.0274 H       1  UNK1          0.14
     50 HA1        -2.0620    3.3178    1.9990 H       2  GLY2       0.19999999999999996
     51 HA2        -3.2205    1.9998    1.9634 H       2  GLY2       0.19999999999999996
     52 H           0.0737    3.1313   -1.7618 H       1  UNK1       0.18999999999999995
     53 H           0.9065    1.8103   -2.6105 H       1  UNK1       0.19999999999999996
     54 H          -2.3290   -3.2320    0.1653 H       1  UNK1       0.19999999999999996
     55 H          -1.3562    1.2366   -1.9026 H       1  UNK1       0.17000000000000004
     56 H           3.2161    0.6260    1.4791 H       1  UNK1          0.13
     57 H           2.5265    0.3415   -1.4826 H       1  UNK1       0.19999999999999996
     58 H          -0.5761   -2.2028    1.0318 H       1  UNK1          0.35
     59 H          -1.3857   -0.9295    1.6507 H       1  UNK1          0.35
     60 H           0.9503   -0.3800   -0.0178 H       1  UNK1          0.47
     61 H          -3.5062    3.3363   -0.7022 H       2  GLY2       0.43999999999999995
     62 H           0.2848    0.7987    1.2137 H       1  UNK1       0.45999999999999996
     63 H          -2.3670   -2.6656    2.8537 H       1  UNK1       0.43999999999999995
@<TRIPOS>BOND
     1    49     9    1
     2    53    11    1
     3    23     9    2
     4    35     2    1
     5    45     7    1
     6     9     8    1
     7    46     7    1
     8    55    13    1
     9    52    11    1
    10     7    16    1
    11     7     6    1
    12    11    13    1
    13    11    31    1
    14    39     4    1
    15    57    15    1
    16    16    25    2
    17    16    22   am
    18     2    36    1
    19     2     1    1
    20     2     3    1
    21    34     1    1
    22    13    22    1
    23    13    18    1
    24    48     8    1
    25    38     3    1
    26     8    15    1
    27     8    47    1
    28    32     1    1
    29     1    33    1
    30    61    27    1
    31    40     4    1
    32    15    31    1
    33    15    14    1
    34     4     3    1
    35     4     5    1
    36    44     6    1
    37     3    37    1
    38     6    43    1
    39     6    12    1
    40    27    17    1
    41    60    24    1
    42    21    18    2
    43    21    10    1
    44    18    28    1
    45    54    12    1
    46     5    41    1
    47     5    14    1
    48     5    42    1
    49    14    24    1
    50    14    56    1
    51    12    20    1
    52    12    19    1
    53    58    20    1
    54    17    10    1
    55    17    26    2
    56    62    28    1
    57    29    19    2
    58    10    51    1
    59    10    50    1
    60    20    59    1
    61    19    30    1
    62    63    30    1
