@<TRIPOS>MOLECULE
NOTCZLKDULMKBR-UHFFFAOYSA-N	6044939	-461.1857167084644
 20 20 0 0 0
SMALL
MULLIKEN NwChem

@<TRIPOS>ATOM
      1 C           0.5160   -2.6130    1.3487 C.3     1  LIG1            -0.54
      2 C           1.3110    2.4980    1.6838 C.3     1  LIG1       -0.23000000000000043
      3 C          -0.5820   -1.5416   -0.6591 C.ar    1  LIG1      -0.29000000000000004
      4 C           0.5566   -0.1281    0.9405 C.ar    1  LIG1      -0.2699999999999996
      5 C          -0.5114    0.8594   -1.0086 C.ar    1  LIG1       -0.2599999999999998
      6 C           0.1507   -1.4032    0.5191 C.ar    1  LIG1      0.16000000000000014
      7 C          -0.9098   -0.4079   -1.4184 C.ar    1  LIG1       0.3600000000000003
      8 C           0.2238    0.9952    0.1750 C.ar    1  LIG1       0.3700000000000001
      9 O          -1.6272   -0.4925   -2.5812 O.3     1  LIG1      -0.6799999999999997
     10 O           0.5689    2.2774    0.4956 O.3     1  LIG1      -0.5299999999999994
     11 H           0.1105   -3.5351    0.9207 H       1  LIG1       0.17000000000000004
     12 H           0.1327   -2.5211    2.3724 H       1  LIG1       0.17000000000000004
     13 H           1.6047   -2.7284    1.4220 H       1  LIG1       0.17000000000000004
     14 H           0.7593    2.1665    2.5743 H       1  LIG1       0.17000000000000004
     15 H           2.2842    1.9889    1.6553 H       1  LIG1       0.17000000000000004
     16 H           1.4711    3.5766    1.7407 H       1  LIG1       0.18000000000000005
     17 H          -0.9010   -2.5279   -0.9917 H       1  LIG1       0.15000000000000002
     18 H           1.1251   -0.0329    1.8584 H       1  LIG1       0.15000000000000002
     19 H          -0.7656    1.7349   -1.5945 H       1  LIG1       0.15000000000000002
     20 H          -1.8414   -1.4229   -2.7493 H       1  LIG1       0.44999999999999996
@<TRIPOS>BOND
     1    20     9    1
     2     9     7    1
     3    19     5    1
     4     7     5   ar
     5     7     3   ar
     6     5     8   ar
     7    17     3    1
     8     3     6   ar
     9     8    10    1
    10     8     4   ar
    11    10     2    1
    12     6     4   ar
    13     6     1    1
    14    11     1    1
    15     4    18    1
    16     1    13    1
    17     1    12    1
    18    15     2    1
    19     2    16    1
    20     2    14    1
