@<TRIPOS>MOLECULE
NOTGFIUVDGNKRI-UUOKFMHZSA-L	11095228	-1513.0779259599055
 35 36 0 0 0
SMALL
MULLIKEN NwChem

@<TRIPOS>ATOM
      1 C           1.8494    0.7463   -1.9206 C.3     1  LIG1       -0.08000000000000007
      2 C          -2.7114   -0.3935   -1.1321 C.ar    1  LIG1       0.17999999999999972
      3 C           1.1455    1.0487   -0.5940 C.3     1  LIG1       0.1299999999999999
      4 C          -4.0818   -1.2417    0.3108 C.ar    1  LIG1       0.09999999999999964
      5 C           1.5509    0.1723    0.6357 C.3     1  LIG1       0.04999999999999982
      6 C           0.2445   -0.5905    0.9495 C.3     1  LIG1       0.1299999999999999
      7 C          -2.9957   -0.7721    1.0185 C.ar    1  LIG1       0.3899999999999997
      8 C          -5.2758   -1.9240    0.9539 C.2     1  LIG1       0.45999999999999996
      9 C          -0.8263    0.3768    0.4038 C.3     1  LIG1       0.28000000000000025
     10 N          -2.7068   -0.9082    2.3985 N.pl3   1  LIG1      -0.8700000000000001
     11 N          -6.3045   -2.2914    0.2250 N.am    1  LIG1      -0.8200000000000003
     12 N          -3.8809   -0.9900   -1.0430 N.ar    1  LIG1      -0.5899999999999999
     13 N          -2.1110   -0.2354    0.0982 N.ar    1  LIG1      -0.4800000000000004
     14 O           1.9547    0.9759    1.7204 O.3     1  LIG1      -0.7200000000000006
     15 O           0.1119   -0.9407    2.2987 O.3     1  LIG1      -0.7100000000000009
     16 O          -5.1644   -2.0795    2.2282 O.2     1  LIG1      -0.7300000000000004
     17 O           4.1440    1.7992    0.2619 O.3     1  LIG1      -0.6999999999999993
     18 O           5.5101    1.9190   -1.8950 O.3     1  LIG1      -0.7100000000000009
     19 O           4.5965   -0.3846   -1.1691 O.2     1  LIG1      -0.7100000000000009
     20 O           3.0578    1.4809   -2.0717 O.3     1  LIG1      -0.5800000000000001
     21 O          -0.2783    0.8695   -0.7979 O.3     1  LIG1      -0.5500000000000007
     22 P           4.3360    1.0929   -1.0582 P.3     1  LIG1       1.1099999999999994
     23 H           1.1868    1.0611   -2.7360 H       1  LIG1       0.16000000000000003
     24 H           2.0365   -0.3323   -2.0217 H       1  LIG1       0.16000000000000003
     25 H          -2.2340   -0.0321   -2.0307 H       1  LIG1       0.18000000000000005
     26 H           1.3386    2.0961   -0.3324 H       1  LIG1       0.15000000000000002
     27 H           2.3479   -0.5292    0.3544 H       1  LIG1       0.15000000000000002
     28 H           0.2040   -1.4725    0.2831 H       1  LIG1          0.14
     29 H          -0.9803    1.1849    1.1399 H       1  LIG1       0.17000000000000004
     30 H          -2.7355    0.0030    2.8637 H       1  LIG1          0.36
     31 H          -3.5514   -1.4513    2.7107 H       1  LIG1          0.36
     32 H          -6.0854   -2.0309   -0.7434 H       1  LIG1          0.26
     33 H           2.8090    1.3589    1.4004 H       1  LIG1       0.43999999999999995
     34 H          -0.8385   -1.1803    2.4402 H       1  LIG1       0.43999999999999995
     35 H           5.8293    1.2835   -2.5543 H       1  LIG1       0.44999999999999996
@<TRIPOS>BOND
     1    23     1    1
     2    35    18    1
     3    20     1    1
     4    20    22    1
     5    25     2    1
     6    24     1    1
     7     1     3    1
     8    18    22    1
     9    19    22    2
    10     2    12   ar
    11     2    13   ar
    12    22    17    1
    13    12     4   ar
    14    21     3    1
    15    21     9    1
    16    32    11    1
    17     3    26    1
    18     3     5    1
    19    13     9    1
    20    13     7   ar
    21    11     8   am
    22    28     6    1
    23     4     8    1
    24     4     7   ar
    25    27     5    1
    26     9     6    1
    27     9    29    1
    28     5     6    1
    29     5    14    1
    30     6    15    1
    31     8    16    2
    32     7    10    1
    33    33    14    1
    34    15    34    1
    35    10    31    1
    36    10    30    1
