@<TRIPOS>MOLECULE
NPALUEYCDZWBOV-NDZSKPAWSA-J	11095227	-4058.886830054411
 89 91 0 0 0
SMALL
MULLIKEN NwChem

@<TRIPOS>ATOM
      1 C          13.5238   -2.3148    1.3697 C.2     1  LIG1      -0.3899999999999997
      2 C          12.6241   -1.5009   -0.8298 C.3     1  LIG1      -0.5599999999999996
      3 C           2.3009    1.5617    1.8775 C.3     1  LIG1      -0.46999999999999975
      4 C           3.4773    1.5187   -0.3519 C.3     1  LIG1      -0.46999999999999975
      5 C           7.8367   -0.6799    0.0407 C.3     1  LIG1       -0.3200000000000003
      6 C           6.4023   -0.1191   -0.1126 C.3     1  LIG1       -0.1299999999999999
      7 C          10.9890    1.2930   -0.2297 C.3     1  LIG1       -0.11000000000000032
      8 C          11.6758    1.0468    1.1452 C.3     1  LIG1       -0.4299999999999997
      9 C          -4.1635   -0.6820   -1.7191 C.3     1  LIG1       -0.08000000000000007
     10 C           1.5347   -0.0245    0.0920 C.3     1  LIG1       -0.04999999999999982
     11 C         -10.6701   -3.0615    1.6399 C.ar    1  LIG1       0.15000000000000036
     12 C          -6.8813   -0.9342    1.3065 C.ar    1  LIG1       0.1900000000000004
     13 C          13.4491   -1.3703    0.4240 C.2     1  LIG1      0.13999999999999968
     14 C          -5.5949   -0.8941   -2.1741 C.3     1  LIG1       0.1299999999999999
     15 C           8.9251    0.3737    0.2890 C.2     1  LIG1       0.4900000000000002
     16 C          -8.5149   -1.7172    2.4232 C.ar    1  LIG1       0.1900000000000004
     17 C          -7.8934   -0.3128   -1.7866 C.3     1  LIG1       0.09999999999999964
     18 C          -6.5064    0.3283   -2.0113 C.3     1  LIG1       0.07000000000000028
     19 C           3.7375   -0.4183    1.2943 C.3     1  LIG1       0.04999999999999982
     20 C          -9.4899   -2.0916    3.3568 C.ar    1  LIG1       0.4400000000000004
     21 C          -8.7614   -2.0754    1.0875 C.ar    1  LIG1          0.54
     22 C           4.3516   -1.3783    0.2073 C.2     1  LIG1       0.46999999999999975
     23 C          -7.5428   -1.6351   -1.0879 C.3     1  LIG1       0.2400000000000002
     24 C          14.2826   -0.1220    0.6328 C.2     1  LIG1       0.23000000000000043
     25 C           2.7636    0.6679    0.7103 C.3     1  LIG1       0.07000000000000028
     26 N          -9.3413   -1.8016    4.6997 N.pl3   1  LIG1      -0.7800000000000002
     27 N           9.9987    0.2849   -0.5171 N.am    1  LIG1      -0.5899999999999999
     28 N           5.4811   -1.1958   -0.4268 N.am    1  LIG1      -0.5899999999999999
     29 N         -10.5818   -2.7658    2.9533 N.ar    1  LIG1        -0.54
     30 N          -9.8306   -2.7639    0.6481 N.ar    1  LIG1        -0.54
     31 N          -7.3399   -1.0071    2.5424 N.ar    1  LIG1      -0.5800000000000001
     32 N          -7.7003   -1.5661    0.3806 N.ar    1  LIG1      -0.5199999999999996
     33 O           8.7639    1.2205    1.2141 O.2     1  LIG1      -0.7200000000000006
     34 O          -8.4733   -0.6117   -3.0475 O.3     1  LIG1      -0.6999999999999993
     35 O           3.0370   -1.2570    2.2138 O.3     1  LIG1      -0.7100000000000009
     36 O           3.5759   -2.3878    0.0273 O.2     1  LIG1      -0.7300000000000004
     37 O          15.4962   -0.1438    0.4804 O.2     1  LIG1      -0.4900000000000002
     38 O          -5.4326    3.3989   -2.8029 O.3     1  LIG1      -0.7400000000000002
     39 O          -7.4279    3.1665   -4.3800 O.2     1  LIG1      -0.6799999999999997
     40 O          -7.7644    2.8393   -1.7766 O.3     1  LIG1      -0.7100000000000009
     41 O          -3.6207    2.1233   -0.9852 O.2     1  LIG1      -0.7400000000000002
     42 O          -3.9887    1.3606    1.5350 O.3     1  LIG1      -0.6300000000000008
     43 O          -1.1107    2.0376   -1.8199 O.3     1  LIG1      -0.7100000000000009
     44 O          -0.8845   -0.5882   -1.7949 O.2     1  LIG1      -0.6199999999999992
     45 O          -4.1483   -0.3090   -0.3407 O.3     1  LIG1      -0.5800000000000001
     46 O           0.6049    1.0163   -0.3616 O.3     1  LIG1      -0.5299999999999994
     47 O          -6.2094   -1.9551   -1.3987 O.3     1  LIG1      -0.5399999999999991
     48 O          -6.4907    1.0978   -3.1910 O.3     1  LIG1      -0.6500000000000004
     49 O          -1.8549    0.7362    0.2335 O.3     1  LIG1      -0.6400000000000006
     50 P          -6.9248    2.7664   -3.0260 P.3     1  LIG1       1.0700000000000003
     51 P          -3.4883    1.1163    0.1569 P.3     1  LIG1       1.2400000000000002
     52 P          -0.8100    0.6797   -1.0240 P.3     1  LIG1       1.1899999999999995
     53 S          13.5050    1.3924    1.1899 S.3     1  LIG1      0.0600000000000005
     54 H          12.9766   -3.2507    1.2722 H       1  LIG1       0.17000000000000004
     55 H          14.1037   -2.1733    2.2787 H       1  LIG1       0.17000000000000004
     56 H          13.1254   -1.0267   -1.6826 H       1  LIG1       0.16000000000000003
     57 H          11.6151   -1.0378   -0.7323 H       1  LIG1       0.20999999999999996
     58 H          12.4744   -2.5622   -1.0627 H       1  LIG1       0.17000000000000004
     59 H           3.1591    2.0989    2.3051 H       1  LIG1       0.15000000000000002
     60 H           1.5594    2.2961    1.5453 H       1  LIG1       0.15000000000000002
     61 H           1.8571    0.9434    2.6651 H       1  LIG1          0.14
     62 H           2.7967    2.2781   -0.7544 H       1  LIG1       0.15000000000000002
     63 H           4.3502    2.0221    0.0809 H       1  LIG1       0.15000000000000002
     64 H           3.8362    0.8889   -1.1721 H       1  LIG1       0.15000000000000002
     65 H           7.8247   -1.3688    0.9007 H       1  LIG1          0.12
     66 H           8.0874   -1.2770   -0.8428 H       1  LIG1       0.10999999999999999
     67 H           6.4218    0.6204   -0.9363 H       1  LIG1       0.09999999999999998
     68 H           6.1837    0.4663    0.7967 H       1  LIG1       0.09999999999999998
     69 H          11.7629    1.2694   -1.0145 H       1  LIG1          0.12
     70 H          10.5777    2.3185   -0.2049 H       1  LIG1       0.10999999999999999
     71 H          11.2248    1.6607    1.9266 H       1  LIG1       0.18999999999999995
     72 H          11.5456    0.0031    1.4422 H       1  LIG1       0.18000000000000005
     73 H          -3.7266    0.0994   -2.3484 H       1  LIG1       0.18000000000000005
     74 H          -3.5662   -1.5915   -1.8339 H       1  LIG1       0.18000000000000005
     75 H           1.8126   -0.6586   -0.7516 H       1  LIG1       0.17000000000000004
     76 H           1.0377   -0.6379    0.8472 H       1  LIG1       0.17000000000000004
     77 H         -11.5625   -3.6187    1.3531 H       1  LIG1       0.16000000000000003
     78 H          -5.9546   -0.4536    1.0110 H       1  LIG1       0.22999999999999998
     79 H          -5.5942   -1.1895   -3.2328 H       1  LIG1       0.17000000000000004
     80 H          -8.5467    0.3298   -1.1868 H       1  LIG1       0.16000000000000003
     81 H          -6.2200    0.9149   -1.1354 H       1  LIG1       0.18000000000000005
     82 H           4.5167    0.1219    1.8478 H       1  LIG1          0.12
     83 H          -8.2214   -2.4310   -1.4112 H       1  LIG1       0.18000000000000005
     84 H         -10.2138   -1.7372    5.2079 H       1  LIG1          0.37
     85 H          -8.6815   -1.0544    4.8826 H       1  LIG1          0.37
     86 H          -8.0629    0.0631   -3.6329 H       1  LIG1       0.43999999999999995
     87 H           2.9176   -2.0416    1.6047 H       1  LIG1          0.39
     88 H          -4.9471    2.9673   -2.0627 H       1  LIG1       0.45999999999999996
     89 H          -2.0763    2.2732   -1.6620 H       1  LIG1           0.48
@<TRIPOS>BOND
     1    39    50    2
     2    86    34    1
     3    79    14    1
     4    48    50    1
     5    48    18    1
     6    34    17    1
     7    50    38    1
     8    50    40    1
     9    38    88    1
    10    73     9    1
    11    14    18    1
    12    14     9    1
    13    14    47    1
    14    18    17    1
    15    18    81    1
    16    74     9    1
    17    43    89    1
    18    43    52    1
    19    44    52    2
    20    17    80    1
    21    17    23    1
    22     9    45    1
    23    56     2    1
    24    83    23    1
    25    47    23    1
    26    64     4    1
    27    23    32    1
    28    58     2    1
    29    52    46    1
    30    52    49    1
    31    69     7    1
    32    41    51    2
    33    67     6    1
    34    66     5    1
    35     2    57    1
    36     2    13    1
    37    62     4    1
    38    75    10    1
    39    27     7    1
    40    27    15   am
    41    28     6    1
    42    28    22   am
    43    46    10    1
    44     4    63    1
    45     4    25    1
    46    45    51    1
    47     7    70    1
    48     7     8    1
    49     6     5    1
    50     6    68    1
    51    36    22    2
    52     5    15    1
    53     5    65    1
    54    10    25    1
    55    10    76    1
    56    51    49    1
    57    51    42    1
    58    22    19    1
    59    15    33    2
    60    32    21   ar
    61    32    12   ar
    62    13    24    1
    63    13     1    2
    64    37    24    2
    65    24    53    1
    66    30    21   ar
    67    30    11   ar
    68    25    19    1
    69    25     3    1
    70    78    12    1
    71    21    16   ar
    72     8    53    1
    73     8    72    1
    74     8    71    1
    75    54     1    1
    76    19    82    1
    77    19    35    1
    78    12    31   ar
    79    77    11    1
    80     1    55    1
    81    60     3    1
    82    87    35    1
    83    11    29   ar
    84     3    59    1
    85     3    61    1
    86    16    31   ar
    87    16    20   ar
    88    29    20   ar
    89    20    26    1
    90    26    85    1
    91    26    84    1
