@<TRIPOS>MOLECULE
NPJICTMALKLTFW-KUENWNPSSA-N	6044943	-1820.3817888281767
 101 105 0 0 0
SMALL
MULLIKEN NwChem

@<TRIPOS>ATOM
      1 C          -6.5826    2.2017   -3.8252 C.3     1  LIG1      -0.46999999999999975
      2 C          -4.6087   -1.3482   -1.5475 C.3     1  LIG1      -0.4800000000000004
      3 C          -5.5116    0.8509   -0.7853 C.3     1  LIG1      -0.46999999999999975
      4 C          -1.4599   -0.8220   -6.7485 C.3     1  LIG1      -0.46999999999999975
      5 C           2.7233    2.4944   -0.8350 C.3     1  LIG1      -0.4900000000000002
      6 C           0.8116   -0.6932   -4.5699 C.3     1  LIG1      -0.4900000000000002
      7 C          -5.0966    2.0599   -3.4707 C.3     1  LIG1      -0.2699999999999996
      8 C          -3.4479    0.0731   -5.4637 C.3     1  LIG1      -0.28000000000000025
      9 C          -4.6068   -0.2291   -4.4741 C.3     1  LIG1      -0.2999999999999998
     10 C           3.1978   -1.0398   -0.4562 C.2     1  LIG1      -0.23000000000000043
     11 C           2.2509   -1.6319   -1.4681 C.3     1  LIG1      -0.3099999999999996
     12 C          -1.2911   -2.7960   -3.9646 C.3     1  LIG1      -0.3099999999999996
     13 C          -0.3242   -2.8149   -2.7456 C.3     1  LIG1      -0.29000000000000004
     14 C           1.9043    1.8795    2.1384 C.3     1  LIG1      -0.29000000000000004
     15 C          -0.1050    1.3736   -1.9063 C.3     1  LIG1      -0.29000000000000004
     16 C           1.1111    1.5250    0.8669 C.3     1  LIG1      -0.29000000000000004
     17 C          -0.6329    0.9698   -3.3066 C.3     1  LIG1      -0.3200000000000003
     18 C           3.8866    0.5834    1.2885 C.3     1  LIG1      -0.3799999999999999
     19 C           1.7025    1.1273    7.3647 C.3     1  LIG1       -0.04999999999999982
     20 C          -5.3478   -0.0753   -2.0034 C.3     1  LIG1      -0.07000000000000028
     21 C          -2.3769   -1.0439   -5.5369 C.3     1  LIG1      -0.08999999999999986
     22 C          -4.6071    0.6209   -3.1800 C.3     1  LIG1      -0.08000000000000007
     23 C           3.0696    0.1822    0.0824 C.2     1  LIG1      0.16999999999999993
     24 C           2.9324    0.7987    2.4721 C.3     1  LIG1       0.1299999999999999
     25 C           0.9173   -0.8802   -1.3945 C.3     1  LIG1      -0.09999999999999964
     26 C          -1.6784   -1.3072   -4.1755 C.3     1  LIG1      -0.11000000000000032
     27 C          -0.2309   -1.3354   -2.3209 C.3     1  LIG1      -0.1200000000000001
     28 C           1.1978    0.6334   -1.5597 C.3     1  LIG1      -0.11000000000000032
     29 C           1.4976    0.1041    6.2395 C.3     1  LIG1       0.04999999999999982
     30 C           2.0246   -1.3066    6.5379 C.3     1  LIG1       0.1299999999999999
     31 C           3.5500   -1.4199    6.3543 C.3     1  LIG1       0.09999999999999964
     32 C           4.0439   -0.7685    5.0486 C.3     1  LIG1       0.05999999999999961
     33 C           3.4229    0.6355    4.8493 C.3     1  LIG1       0.33999999999999986
     34 C           2.0121    1.2022   -0.3587 C.3     1  LIG1      0.040000000000000036
     35 C          -0.4187   -0.5367   -3.6449 C.3     1  LIG1      0.11000000000000032
     36 O           1.1917    2.3900    6.9843 O.3     1  LIG1      -0.6699999999999999
     37 O           1.4515   -2.2743    5.6720 O.3     1  LIG1      -0.6799999999999997
     38 O           4.2332   -0.8996    7.4962 O.3     1  LIG1      -0.6799999999999997
     39 O           3.7677   -1.6597    3.9835 O.3     1  LIG1      -0.6600000000000001
     40 O           3.7313    1.2023    3.6128 O.3     1  LIG1      -0.5500000000000007
     41 O           2.0072    0.6319    5.0032 O.3     1  LIG1      -0.5199999999999996
     42 H          -6.8361    1.6675   -4.7454 H       1  LIG1       0.15000000000000002
     43 H          -6.8419    3.2553   -3.9780 H       1  LIG1          0.14
     44 H          -7.2314    1.8152   -3.0327 H       1  LIG1       0.15000000000000002
     45 H          -5.1377   -1.8304   -0.7166 H       1  LIG1          0.14
     46 H          -4.5010   -2.0901   -2.3451 H       1  LIG1       0.16000000000000003
     47 H          -3.5995   -1.0951   -1.1926 H       1  LIG1       0.15000000000000002
     48 H          -6.1673    1.7026   -0.9866 H       1  LIG1       0.15000000000000002
     49 H          -5.9343    0.3021    0.0643 H       1  LIG1          0.14
     50 H          -4.5383    1.2478   -0.4687 H       1  LIG1          0.14
     51 H          -0.9821    0.1642   -6.7184 H       1  LIG1       0.15000000000000002
     52 H          -0.6715   -1.5796   -6.8129 H       1  LIG1       0.15000000000000002
     53 H          -2.0459   -0.8686   -7.6751 H       1  LIG1          0.14
     54 H           3.2670    2.9964   -0.0302 H       1  LIG1       0.16000000000000003
     55 H           3.4420    2.2656   -1.6302 H       1  LIG1       0.15000000000000002
     56 H           1.9946    3.2118   -1.2304 H       1  LIG1       0.15000000000000002
     57 H           1.7288   -0.3727   -4.0683 H       1  LIG1       0.15000000000000002
     58 H           0.9674   -1.7254   -4.8978 H       1  LIG1       0.15000000000000002
     59 H           0.7142   -0.0777   -5.4645 H       1  LIG1       0.15000000000000002
     60 H          -4.4980    2.4651   -4.2972 H       1  LIG1          0.13
     61 H          -4.8703    2.6973   -2.6075 H       1  LIG1          0.14
     62 H          -3.8556    0.2086   -6.4741 H       1  LIG1          0.13
     63 H          -2.9665    1.0292   -5.2127 H       1  LIG1          0.14
     64 H          -4.5735   -1.2935   -4.2203 H       1  LIG1          0.14
     65 H          -5.5696   -0.0940   -4.9796 H       1  LIG1          0.13
     66 H           3.9884   -1.6904   -0.0833 H       1  LIG1          0.13
     67 H           2.6760   -1.6014   -2.4824 H       1  LIG1       0.15000000000000002
     68 H           2.1068   -2.6950   -1.2356 H       1  LIG1          0.14
     69 H          -0.8084   -3.2036   -4.8621 H       1  LIG1          0.14
     70 H          -2.1890   -3.4004   -3.7954 H       1  LIG1          0.13
     71 H           0.6575   -3.2055   -3.0305 H       1  LIG1          0.14
     72 H          -0.6922   -3.4467   -1.9302 H       1  LIG1          0.13
     73 H           2.4348    2.8323    2.0158 H       1  LIG1          0.14
     74 H           1.2253    1.9985    2.9881 H       1  LIG1       0.15000000000000002
     75 H           0.0329    2.4608   -1.8809 H       1  LIG1          0.14
     76 H          -0.8624    1.1482   -1.1432 H       1  LIG1          0.14
     77 H           0.4346    2.3519    0.6209 H       1  LIG1          0.14
     78 H           0.4771    0.6539    1.0792 H       1  LIG1          0.14
     79 H          -0.1302    1.5847   -4.0639 H       1  LIG1          0.13
     80 H          -1.6936    1.2299   -3.3671 H       1  LIG1       0.15000000000000002
     81 H           4.4518    1.5103    1.1310 H       1  LIG1       0.15000000000000002
     82 H           4.6243   -0.1927    1.5289 H       1  LIG1       0.15000000000000002
     83 H           1.1594    0.8014    8.2584 H       1  LIG1       0.17000000000000004
     84 H           2.7629    1.1899    7.6507 H       1  LIG1          0.14
     85 H          -6.3508   -0.3679   -2.3491 H       1  LIG1          0.12
     86 H          -2.9369   -1.9721   -5.7438 H       1  LIG1          0.12
     87 H          -3.5642    0.7221   -2.8464 H       1  LIG1          0.13
     88 H           2.4157   -0.1367    2.6979 H       1  LIG1       0.15000000000000002
     89 H           0.5551   -1.0341   -0.3671 H       1  LIG1          0.12
     90 H          -2.4447   -1.1044   -3.4218 H       1  LIG1          0.14
     91 H          -1.1487   -1.1326   -1.7504 H       1  LIG1          0.14
     92 H           1.8638    0.7435   -2.4262 H       1  LIG1          0.13
     93 H           0.4156    0.0476    6.0618 H       1  LIG1       0.17000000000000004
     94 H           1.8111   -1.5386    7.5936 H       1  LIG1       0.15000000000000002
     95 H           3.7939   -2.4842    6.3027 H       1  LIG1       0.16000000000000003
     96 H           5.1306   -0.6188    5.1519 H       1  LIG1       0.16000000000000003
     97 H           3.8793    1.3182    5.5871 H       1  LIG1       0.16000000000000003
     98 H           1.4559    2.5142    6.0560 H       1  LIG1       0.43000000000000005
     99 H           0.4913   -2.1441    5.6592 H       1  LIG1       0.43000000000000005
    100 H           4.4454    0.0333    7.3498 H       1  LIG1       0.43999999999999995
    101 H           4.2660   -1.3515    3.2115 H       1  LIG1       0.43999999999999995
@<TRIPOS>BOND
     1    53     4    1
     2    52     4    1
     3     4    51    1
     4     4    21    1
     5    62     8    1
     6    86    21    1
     7    21     8    1
     8    21    26    1
     9    59     6    1
    10     8    63    1
    11     8     9    1
    12    65     9    1
    13    58     6    1
    14    69    12    1
    15    42     1    1
    16     6    57    1
    17     6    35    1
    18     9    64    1
    19     9    22    1
    20    60     7    1
    21    26    12    1
    22    26    35    1
    23    26    90    1
    24    79    17    1
    25    43     1    1
    26    12    70    1
    27    12    13    1
    28     1     7    1
    29     1    44    1
    30    35    17    1
    31    35    27    1
    32     7    22    1
    33     7    61    1
    34    80    17    1
    35    17    15    1
    36    22    87    1
    37    22    20    1
    38    71    13    1
    39    13    27    1
    40    13    72    1
    41    67    11    1
    42    92    28    1
    43    85    20    1
    44    46     2    1
    45    27    91    1
    46    27    25    1
    47    20     2    1
    48    20     3    1
    49    15    75    1
    50    15    28    1
    51    15    76    1
    52    55     5    1
    53    28    25    1
    54    28    34    1
    55     2    47    1
    56     2    45    1
    57    11    25    1
    58    11    68    1
    59    11    10    1
    60    25    89    1
    61    56     5    1
    62    48     3    1
    63     5    34    1
    64     5    54    1
    65     3    50    1
    66     3    49    1
    67    10    66    1
    68    10    23    2
    69    34    23    1
    70    34    16    1
    71    23    18    1
    72    77    16    1
    73    16    78    1
    74    16    14    1
    75    81    18    1
    76    18    82    1
    77    18    24    1
    78    73    14    1
    79    14    24    1
    80    14    74    1
    81    24    88    1
    82    24    40    1
    83   101    39    1
    84    40    33    1
    85    39    32    1
    86    33    41    1
    87    33    32    1
    88    33    97    1
    89    41    29    1
    90    32    96    1
    91    32    31    1
    92    99    37    1
    93    37    30    1
    94    98    36    1
    95    93    29    1
    96    29    30    1
    97    29    19    1
    98    95    31    1
    99    31    30    1
   100    31    38    1
   101    30    94    1
   102    36    19    1
   103   100    38    1
   104    19    84    1
   105    19    83    1
