@<TRIPOS>MOLECULE
NPOAOTPXWNWTSH-UHFFFAOYSA-L	6044944	-609.7730194675147
 19 18 0 0 0
SMALL
MULLIKEN NwChem

@<TRIPOS>ATOM
      1 C           1.3005   -0.9695    0.6435 C.3     1  LIG1      -0.46999999999999975
      2 C           0.8981    0.7222   -1.2011 C.3     1  LIG1       -0.3899999999999997
      3 C          -0.9949    0.0710    0.3925 C.3     1  LIG1       -0.3899999999999997
      4 C           0.6768   -0.2353   -2.4317 C.2     1  LIG1       0.5300000000000002
      5 C          -1.5214   -0.1334    1.8520 C.2     1  LIG1       0.5499999999999998
      6 C           0.5272    0.2965    0.2311 C.3     1  LIG1       0.34999999999999964
      7 O           0.9831    0.2903   -3.5380 O.co2   1  LIG1      -0.6999999999999993
      8 O           0.2418   -1.4016   -2.2261 O.co2   1  LIG1      -0.6699999999999999
      9 O          -0.8155    0.3660    2.7977 O.co2   1  LIG1      -0.6699999999999999
     10 O          -2.6153   -0.7285    1.9827 O.co2   1  LIG1      -0.6699999999999999
     11 O           0.9280    1.3873    1.0902 O.3     1  LIG1      -0.7599999999999998
     12 H           1.0642   -1.7820   -0.0495 H       1  LIG1          0.13
     13 H           1.0342   -1.2410    1.6724 H       1  LIG1          0.13
     14 H           2.3807   -0.7641    0.6071 H       1  LIG1          0.13
     15 H           0.3701    1.6619   -1.4205 H       1  LIG1          0.12
     16 H           1.9663    0.9945   -1.1960 H       1  LIG1          0.12
     17 H          -1.5050    0.9666    0.0005 H       1  LIG1          0.14
     18 H          -1.3041   -0.7675   -0.2373 H       1  LIG1          0.12
     19 H           0.4068    1.1766    1.9154 H       1  LIG1            0.4
@<TRIPOS>BOND
     1     7     4   ar
     2     4     8   ar
     3     4     2    1
     4    15     2    1
     5     2    16    1
     6     2     6    1
     7    18     3    1
     8    12     1    1
     9    17     3    1
    10     6     3    1
    11     6     1    1
    12     6    11    1
    13     3     5    1
    14    14     1    1
    15     1    13    1
    16    11    19    1
    17     5    10   ar
    18     5     9   ar
