@<TRIPOS>MOLECULE
NQEQTYPJSIEPHW-MNOVXSKESA-L	11095226	-1274.007969489676
 31 32 0 0 0
SMALL
MULLIKEN NwChem

@<TRIPOS>ATOM
      1 C           4.5099    1.7068    0.8131 C.ar    1  LIG1      -0.16999999999999993
      2 C           5.2539    1.1069   -0.2244 C.ar    1  LIG1      -0.17999999999999972
      3 C           3.2278    1.2635    1.1283 C.ar    1  LIG1      -0.2400000000000002
      4 C           4.7241    0.0478   -0.9616 C.ar    1  LIG1      -0.1900000000000004
      5 C           1.4439   -1.4475   -0.5190 C.ar    1  LIG1       -0.009999999999999787
      6 C          -1.3820    0.3651   -0.5755 C.3     1  LIG1       -0.019999999999999574
      7 C           2.6596    0.2023    0.4036 C.ar    1  LIG1       0.040000000000000036
      8 C           1.3936   -0.4802    0.4530 C.ar    1  LIG1       0.05999999999999961
      9 C           3.4382   -0.3939   -0.6412 C.ar    1  LIG1       0.2999999999999998
     10 C          -1.1699   -0.5027    0.6890 C.3     1  LIG1       0.1200000000000001
     11 C           0.2216   -0.2702    1.3883 C.3     1  LIG1       0.03000000000000025
     12 N           2.6734   -1.4083   -1.1721 N.ar    1  LIG1      -0.6900000000000004
     13 O          -1.2721   -1.8649    0.4837 O.3     1  LIG1      -0.7699999999999996
     14 O           0.2597   -1.2529    2.4290 O.3     1  LIG1      -0.7200000000000006
     15 O          -4.1704    0.8830    0.3730 O.3     1  LIG1      -0.7400000000000002
     16 O          -3.8973   -1.6761   -0.0713 O.3     1  LIG1      -0.7899999999999991
     17 O          -4.9839   -0.2089   -1.8801 O.2     1  LIG1      -0.7100000000000009
     18 O          -2.4842   -0.0129   -1.3840 O.3     1  LIG1      -0.6199999999999992
     19 P          -4.0323   -0.1654   -0.7110 P.3     1  LIG1       1.0299999999999994
     20 H           4.9483    2.5304    1.3747 H       1  LIG1          0.13
     21 H           6.2529    1.4741   -0.4544 H       1  LIG1          0.14
     22 H           2.6595    1.7295    1.9296 H       1  LIG1          0.14
     23 H           5.2949   -0.4192   -1.7636 H       1  LIG1       0.15000000000000002
     24 H           0.6383   -2.1274   -0.7692 H       1  LIG1       0.16000000000000003
     25 H          -1.4729    1.4208   -0.2575 H       1  LIG1       0.09999999999999998
     26 H          -0.5040    0.2871   -1.2334 H       1  LIG1          0.12
     27 H          -1.9145   -0.1380    1.4291 H       1  LIG1       0.06000000000000005
     28 H           0.2912    0.7305    1.8439 H       1  LIG1       0.10999999999999999
     29 H           2.9085   -1.9468   -1.9900 H       1  LIG1          0.37
     30 H          -2.9287   -1.8592    0.1487 H       1  LIG1       0.42000000000000004
     31 H          -0.3373   -1.9225    1.9638 H       1  LIG1           0.38
@<TRIPOS>BOND
     1    29    12    1
     2    17    19    2
     3    23     4    1
     4    18    19    1
     5    18     6    1
     6    26     6    1
     7    12     9   ar
     8    12     5   ar
     9     4     9   ar
    10     4     2   ar
    11    24     5    1
    12    19    16    1
    13    19    15    1
    14     9     7   ar
    15     6    25    1
    16     6    10    1
    17     5     8   ar
    18    21     2    1
    19     2     1   ar
    20    16    30    1
    21     7     8   ar
    22     7     3   ar
    23     8    11    1
    24    13    10    1
    25    10    11    1
    26    10    27    1
    27     1     3   ar
    28     1    20    1
    29     3    22    1
    30    11    28    1
    31    11    14    1
    32    31    14    1
