@<TRIPOS>MOLECULE
NRZWQKGABZFFKE-UHFFFAOYSA-N	6044954	-517.665523725359
 13 12 0 0 0
SMALL
MULLIKEN NwChem

@<TRIPOS>ATOM
      1 C           0.6768   -1.2830   -0.8168 C.3     1  LIG1      -0.6100000000000003
      2 C          -1.6411    0.2192   -0.1621 C.3     1  LIG1      -0.6100000000000003
      3 C           0.6763    0.4086    1.4646 C.3     1  LIG1      -0.6100000000000003
      4 S           0.1715    0.3883   -0.2884 S.3     1  LIG1      0.5700000000000003
      5 H           0.3150   -1.4265   -1.8380 H       1  LIG1          0.26
      6 H           0.2586   -2.0355   -0.1438 H       1  LIG1          0.25
      7 H           1.7692   -1.3143   -0.8087 H       1  LIG1          0.25
      8 H          -1.8986   -0.6327    0.4722 H       1  LIG1          0.25
      9 H          -2.0288    1.1507    0.2577 H       1  LIG1          0.25
     10 H          -2.0298    0.0847   -1.1745 H       1  LIG1          0.25
     11 H           0.2578   -0.4543    1.9885 H       1  LIG1          0.25
     12 H           1.7687    0.3919    1.4931 H       1  LIG1          0.25
     13 H           0.3137    1.3436    1.8989 H       1  LIG1           0.25
@<TRIPOS>BOND
     1     5     1    1
     2    10     2    1
     3     1     7    1
     4     1     4    1
     5     1     6    1
     6     4     2    1
     7     4     3    1
     8     2     9    1
     9     2     8    1
    10     3    12    1
    11     3    13    1
    12     3    11    1
