@<TRIPOS>MOLECULE
NUCLJNSWZCHRKL-UHFFFAOYSA-M	6044956	-676.5946795625676
 19 18 0 0 0
SMALL
MULLIKEN NwChem

@<TRIPOS>ATOM
      1 C           0.1968    0.4344   -0.3964 C.3     1  LIG1       0.08000000000000007
      2 C          -0.0543    1.8979   -0.9957 C.2     1  LIG1       0.5300000000000002
      3 C          -0.7496   -1.7827   -1.1682 C.2     1  LIG1       0.6500000000000004
      4 C           0.8034    0.0089    1.9900 C.2     1  LIG1       0.6500000000000004
      5 N          -1.3114   -2.5718   -2.0244 N.2     1  LIG1      -0.7699999999999996
      6 N           0.7800    0.2321    3.2607 N.2     1  LIG1      -0.7599999999999998
      7 N          -0.7287   -0.4233   -1.1400 N.pl3   1  LIG1      -0.6299999999999999
      8 N          -0.0503    0.4878    1.0327 N.pl3   1  LIG1      -0.6100000000000003
      9 O          -0.2232    1.9208   -2.2373 O.co2   1  LIG1      -0.6400000000000006
     10 O          -0.0778    2.8200   -0.1489 O.co2   1  LIG1      -0.6400000000000006
     11 O          -0.1213   -2.3500   -0.1026 O.2     1  LIG1      -0.6099999999999994
     12 O           1.7807   -0.8138    1.5168 O.2     1  LIG1      -0.6099999999999994
     13 H           1.2329    0.1334   -0.5844 H       1  LIG1       0.18000000000000005
     14 H          -1.7383   -2.0291   -2.7768 H       1  LIG1       0.30000000000000004
     15 H          -0.0055    0.8413    3.4945 H       1  LIG1       0.31000000000000005
     16 H          -0.9633    0.0553   -2.0092 H       1  LIG1          0.35
     17 H          -0.3827    1.4346    1.2372 H       1  LIG1          0.35
     18 H          -0.2429   -3.3031   -0.2525 H       1  LIG1       0.43999999999999995
     19 H           2.2438   -1.0893    2.3266 H       1  LIG1       0.43999999999999995
@<TRIPOS>BOND
     1    14     5    1
     2     9     2   ar
     3     5     3    2
     4    16     7    1
     5     3     7    1
     6     3    11    1
     7     7     1    1
     8     2     1    1
     9     2    10   ar
    10    13     1    1
    11     1     8    1
    12    18    11    1
    13     8    17    1
    14     8     4    1
    15    12     4    1
    16    12    19    1
    17     4     6    2
    18     6    15    1
