@<TRIPOS>MOLECULE
NUHSROFQTUXZQQ-UHFFFAOYSA-K	11085310	-1405.6723127483185
 23 22 0 0 0
SMALL
MULLIKEN NwChem

@<TRIPOS>ATOM
      1 C          -4.5406   -0.6638   -1.9207 C.2     1  LIG1      -0.4500000000000002
      2 C          -5.2585   -0.9375    0.4377 C.3     1  LIG1      -0.5300000000000002
      3 C          -2.9559    0.0251   -0.1044 C.3     1  LIG1      -0.3700000000000001
      4 C          -1.9179   -1.1064    0.2562 C.3     1  LIG1       -0.019999999999999574
      5 C          -4.2625   -0.4982   -0.6159 C.2     1  LIG1      0.21999999999999975
      6 O           3.8902    0.9690   -0.7790 O.2     1  LIG1      -0.7599999999999998
      7 O           3.4992    1.7063    1.6860 O.3     1  LIG1        -0.75
      8 O           3.8921   -0.7983    1.1368 O.3     1  LIG1        -0.75
      9 O           0.5798   -1.2410   -1.3793 O.2     1  LIG1      -0.7400000000000002
     10 O          -0.3504    1.1741   -1.1290 O.3     1  LIG1      -0.7300000000000004
     11 O          -0.7552   -0.5792    0.7613 O.3     1  LIG1      -0.6400000000000006
     12 O           1.5496    0.3881    0.4739 O.3     1  LIG1      -0.6899999999999995
     13 P           3.4759    0.5871    0.6411 P.3     1  LIG1       0.9199999999999999
     14 P           0.4070   -0.0062   -0.5095 P.3     1  LIG1       1.0199999999999996
     15 H          -3.8203   -0.3760   -2.6822 H       1  LIG1          0.14
     16 H          -5.4728   -1.1207   -2.2620 H       1  LIG1          0.14
     17 H          -6.1723   -1.3746    0.0083 H       1  LIG1       0.16000000000000003
     18 H          -5.5497   -0.0911    1.0787 H       1  LIG1       0.16000000000000003
     19 H          -4.7980   -1.6803    1.1040 H       1  LIG1       0.16000000000000003
     20 H          -2.4086    0.6554   -0.8191 H       1  LIG1       0.17000000000000004
     21 H          -3.1101    0.6124    0.8138 H       1  LIG1          0.12
     22 H          -2.3877   -1.7824    1.0109 H       1  LIG1       0.10999999999999999
     23 H          -1.7419   -1.7008   -0.6577 H       1  LIG1       0.09999999999999998
@<TRIPOS>BOND
     1    15     1    1
     2    16     1    1
     3     1     5    2
     4     9    14    2
     5    10    14    1
     6    20     3    1
     7     6    13    2
     8    23     4    1
     9     5     3    1
    10     5     2    1
    11    14    12    1
    12    14    11    1
    13     3     4    1
    14     3    21    1
    15    17     2    1
    16     4    11    1
    17     4    22    1
    18     2    18    1
    19     2    19    1
    20    12    13    1
    21    13     8    1
    22    13     7    1
