@<TRIPOS>MOLECULE
NUJGJRNETVAIRJ-UHFFFAOYSA-N	6044958	-389.5295723368898
 25 24 0 0 0
SMALL
MULLIKEN NwChem

@<TRIPOS>ATOM
      1 C           1.3946   -1.9514    2.8309 C.3     1  LIG1      -0.45999999999999996
      2 C           1.1194   -0.4726    2.5352 C.3     1  LIG1      -0.2599999999999998
      3 C           1.5878   -0.0154    1.1431 C.3     1  LIG1      -0.2599999999999998
      4 C           0.9603   -0.7725   -0.0410 C.3     1  LIG1      -0.2699999999999996
      5 C          -0.5773   -0.7546   -0.0842 C.3     1  LIG1      -0.28000000000000025
      6 C          -1.2183    0.6449   -0.0885 C.3     1  LIG1      -0.28000000000000025
      7 C          -0.7518    1.5842   -1.2281 C.3     1  LIG1       -0.33999999999999986
      8 C          -1.0079    0.9846   -2.5917 C.2     1  LIG1       0.2599999999999998
      9 O          -1.9345    1.2935   -3.3095 O.2     1  LIG1      -0.46000000000000085
     10 H           0.8317   -2.6103    2.1601 H       1  LIG1       0.15000000000000002
     11 H           1.1116   -2.2085    3.8579 H       1  LIG1          0.14
     12 H           2.4595   -2.1859    2.7082 H       1  LIG1          0.14
     13 H           0.0455   -0.2721    2.6504 H       1  LIG1          0.14
     14 H           1.6221    0.1463    3.2902 H       1  LIG1          0.13
     15 H           1.3860    1.0596    1.0388 H       1  LIG1          0.14
     16 H           2.6798   -0.1234    1.0829 H       1  LIG1          0.13
     17 H           1.3596   -0.3521   -0.9744 H       1  LIG1          0.14
     18 H           1.2935   -1.8180   -0.0251 H       1  LIG1          0.14
     19 H          -0.9104   -1.3133   -0.9691 H       1  LIG1          0.14
     20 H          -0.9729   -1.3060    0.7787 H       1  LIG1       0.15000000000000002
     21 H          -2.3079    0.5371   -0.1559 H       1  LIG1       0.15000000000000002
     22 H          -1.0161    1.1486    0.8647 H       1  LIG1       0.16000000000000003
     23 H          -1.2933    2.5338   -1.1680 H       1  LIG1       0.16000000000000003
     24 H           0.3226    1.7866   -1.1256 H       1  LIG1       0.18000000000000005
     25 H          -0.2886    0.1950   -2.9098 H       1  LIG1           0.14
@<TRIPOS>BOND
     1     9     8    2
     2    25     8    1
     3     8     7    1
     4     7    23    1
     5     7    24    1
     6     7     6    1
     7    17     4    1
     8    19     5    1
     9    21     6    1
    10     6     5    1
    11     6    22    1
    12     5     4    1
    13     5    20    1
    14     4    18    1
    15     4     3    1
    16    15     3    1
    17    16     3    1
    18     3     2    1
    19    10     1    1
    20     2    13    1
    21     2     1    1
    22     2    14    1
    23    12     1    1
    24     1    11    1
