@<TRIPOS>MOLECULE
NUZLRKBHOBPTQV-ARJAWSKDSA-K	6044959	-721.4303391668857
 18 17 0 0 0
SMALL
MULLIKEN NwChem

@<TRIPOS>ATOM
      1 C           1.1082    1.1751    1.5403 C.3     1  LIG1            -0.54
      2 C          -0.3582   -1.2587    0.9446 C.3     1  LIG1       -0.4299999999999997
      3 C           0.8509    0.7863    0.0874 C.2     1  LIG1       -0.009999999999999787
      4 C           0.0956   -0.3126   -0.1802 C.2     1  LIG1       0.009999999999999787
      5 C          -1.6075   -1.0084    1.8961 C.2     1  LIG1       0.5099999999999998
      6 C           1.5633    1.6993   -0.9496 C.2     1  LIG1       0.45999999999999996
      7 C          -0.2805   -0.8872   -1.5767 C.2     1  LIG1       0.4500000000000002
      8 O          -2.0672   -2.0713    2.4203 O.co2   1  LIG1      -0.6899999999999995
      9 O          -1.9907    0.1686    2.1299 O.co2   1  LIG1      -0.6600000000000001
     10 O           2.0669    2.7869   -0.4923 O.co2   1  LIG1      -0.6999999999999993
     11 O           1.6430    1.3135   -2.1454 O.co2   1  LIG1      -0.6799999999999997
     12 O          -1.2336   -0.3490   -2.1990 O.co2   1  LIG1      -0.6799999999999997
     13 O           0.3370   -1.9520   -1.8892 O.co2   1  LIG1      -0.6899999999999995
     14 H           0.2124    1.0334    2.1545 H       1  LIG1          0.14
     15 H           1.4282    2.2222    1.5558 H       1  LIG1          0.14
     16 H           1.9280    0.5807    2.0009 H       1  LIG1          0.13
     17 H          -0.5050   -2.2483    0.5002 H       1  LIG1          0.12
     18 H           0.4761   -1.3882    1.6602 H       1  LIG1       0.15000000000000002
@<TRIPOS>BOND
     1    12     7   ar
     2    11     6   ar
     3    13     7   ar
     4     7     4    1
     5     6    10   ar
     6     6     3    1
     7     4     3    2
     8     4     2    1
     9     3     1    1
    10    17     2    1
    11     2    18    1
    12     2     5    1
    13     1    15    1
    14     1    16    1
    15     1    14    1
    16     5     9   ar
    17     5     8   ar
