@<TRIPOS>MOLECULE
NVKAWKQGWWIWPM-ABEVXSGRSA-N	6044960	-892.1612381647224
 51 54 0 0 0
SMALL
MULLIKEN NwChem

@<TRIPOS>ATOM
      1 C           2.3528   -1.4307   -1.1484 C.3     1  LIG1      -0.4900000000000002
      2 C          -2.5632    0.7383    1.2619 C.3     1  LIG1         -0.5
      3 C           2.1092    1.6226   -0.0697 C.3     1  LIG1      -0.29000000000000004
      4 C           0.9661    1.4887    0.9469 C.3     1  LIG1      -0.28000000000000025
      5 C          -0.5084    0.4173    3.4626 C.3     1  LIG1      -0.29000000000000004
      6 C          -1.8319   -0.0702    4.1199 C.3     1  LIG1      -0.2999999999999998
      7 C           1.1387    0.0230   -3.9725 C.3     1  LIG1       -0.3700000000000001
      8 C          -0.6270   -1.8360   -0.1609 C.3     1  LIG1      -0.29000000000000004
      9 C           0.5620   -0.7757   -2.7948 C.3     1  LIG1      -0.3200000000000003
     10 C          -1.9711   -1.6428    0.5891 C.3     1  LIG1      -0.3099999999999996
     11 C           0.9232    1.9597   -2.3155 C.3     1  LIG1       -0.3799999999999999
     12 C           1.8028    1.0262   -1.4611 C.3     1  LIG1      -0.1200000000000001
     13 C           0.8922    1.5130   -3.7732 C.2     1  LIG1       0.46999999999999975
     14 C           0.5879    0.0074    1.0646 C.3     1  LIG1      -0.08999999999999986
     15 C          -0.4174   -0.4035    2.1662 C.3     1  LIG1      -0.11000000000000032
     16 C           0.1033   -0.4908   -0.3208 C.3     1  LIG1      -0.1200000000000001
     17 C          -2.5403   -0.9744    3.0796 C.3     1  LIG1       0.1200000000000001
     18 C           1.2115   -0.4304   -1.4132 C.3     1  LIG1      0.1200000000000001
     19 C          -1.8904   -0.5760    1.7173 C.3     1  LIG1      0.11000000000000032
     20 O           0.6850    2.2803   -4.6924 O.2     1  LIG1      -0.5299999999999994
     21 O          -2.2634   -2.3244    3.4628 O.3     1  LIG1      -0.6799999999999997
     22 H           1.9664   -2.4477   -1.0188 H       1  LIG1       0.15000000000000002
     23 H           2.9332   -1.1780   -0.2557 H       1  LIG1       0.15000000000000002
     24 H           3.0482   -1.4468   -1.9968 H       1  LIG1       0.15000000000000002
     25 H          -3.6243    0.5584    1.0476 H       1  LIG1       0.15000000000000002
     26 H          -2.5127    1.5220    2.0245 H       1  LIG1       0.15000000000000002
     27 H          -2.1118    1.1407    0.3517 H       1  LIG1       0.16000000000000003
     28 H           2.3975    2.6747   -0.1916 H       1  LIG1          0.13
     29 H           2.9898    1.1139    0.3454 H       1  LIG1          0.14
     30 H           0.0968    2.0858    0.6386 H       1  LIG1          0.14
     31 H           1.2944    1.8902    1.9130 H       1  LIG1          0.13
     32 H           0.3612    0.2635    4.1101 H       1  LIG1          0.13
     33 H          -0.5558    1.4901    3.2477 H       1  LIG1       0.15000000000000002
     34 H          -2.4721    0.7710    4.4039 H       1  LIG1       0.15000000000000002
     35 H          -1.6551   -0.6613    5.0223 H       1  LIG1          0.14
     36 H           2.2250   -0.1341   -4.0481 H       1  LIG1       0.18999999999999995
     37 H           0.7074   -0.2790   -4.9316 H       1  LIG1       0.16000000000000003
     38 H           0.0135   -2.5349    0.3923 H       1  LIG1          0.14
     39 H          -0.8252   -2.3048   -1.1309 H       1  LIG1          0.14
     40 H           0.6612   -1.8486   -2.9934 H       1  LIG1       0.15000000000000002
     41 H          -0.5173   -0.5766   -2.7536 H       1  LIG1       0.15000000000000002
     42 H          -2.2779   -2.6165    0.9896 H       1  LIG1          0.12
     43 H          -2.7428   -1.3516   -0.1346 H       1  LIG1          0.14
     44 H          -0.1128    1.9709   -1.9465 H       1  LIG1       0.18999999999999995
     45 H           1.2723    2.9972   -2.2826 H       1  LIG1       0.16000000000000003
     46 H           2.7703    0.9614   -1.9802 H       1  LIG1          0.14
     47 H           1.5208   -0.5251    1.3020 H       1  LIG1          0.12
     48 H          -0.1268   -1.4153    2.4786 H       1  LIG1          0.12
     49 H          -0.6579    0.2242   -0.6629 H       1  LIG1          0.13
     50 H          -3.6290   -0.8099    3.0665 H       1  LIG1          0.12
     51 H          -2.7816   -2.9096    2.8900 H       1  LIG1       0.42000000000000004
@<TRIPOS>BOND
     1    37     7    1
     2    20    13    2
     3    36     7    1
     4     7    13    1
     5     7     9    1
     6    13    11    1
     7    40     9    1
     8     9    41    1
     9     9    18    1
    10    11    45    1
    11    11    44    1
    12    11    12    1
    13    24     1    1
    14    46    12    1
    15    12    18    1
    16    12     3    1
    17    18     1    1
    18    18    16    1
    19     1    22    1
    20     1    23    1
    21    39     8    1
    22    49    16    1
    23    16     8    1
    24    16    14    1
    25    28     3    1
    26     8    38    1
    27     8    10    1
    28    43    10    1
    29     3    29    1
    30     3     4    1
    31    27     2    1
    32    10    42    1
    33    10    19    1
    34    30     4    1
    35     4    14    1
    36     4    31    1
    37    25     2    1
    38    14    47    1
    39    14    15    1
    40     2    19    1
    41     2    26    1
    42    19    15    1
    43    19    17    1
    44    15    48    1
    45    15     5    1
    46    51    21    1
    47    50    17    1
    48    17    21    1
    49    17     6    1
    50    33     5    1
    51     5    32    1
    52     5     6    1
    53     6    34    1
    54     6    35    1
