@<TRIPOS>MOLECULE
NWZYYCVIOKVTII-SFOWXEAESA-M	6044962	-527.8101912236472
 14 13 0 0 0
SMALL
MULLIKEN NwChem

@<TRIPOS>ATOM
      1 C           0.0882    0.7261    0.1528 C.3     1  LIG1       0.1900000000000004
      2 C          -0.7595    0.9073    1.4778 C.2     1  LIG1       0.5099999999999998
      3 C           0.4703   -1.3115   -1.2494 C.2     1  LIG1       0.6500000000000004
      4 N           0.3788   -2.5625   -1.5647 N.2     1  LIG1      -0.7599999999999998
      5 N          -0.2788   -0.5823   -0.3806 N.pl3   1  LIG1      -0.6399999999999997
      6 O          -0.1932    1.7919   -0.7197 O.3     1  LIG1      -0.6899999999999995
      7 O          -0.9588   -0.1262    2.1569 O.co2   1  LIG1      -0.6400000000000006
      8 O          -1.1461    2.0920    1.6567 O.co2   1  LIG1      -0.6500000000000004
      9 O           1.4255   -0.5715   -1.8837 O.2     1  LIG1      -0.6199999999999992
     10 H           1.1642    0.7238    0.3960 H       1  LIG1          0.14
     11 H          -0.3685   -3.0046   -1.0270 H       1  LIG1       0.31000000000000005
     12 H          -0.7694   -1.1074    0.3420 H       1  LIG1          0.35
     13 H          -0.7022    2.3747   -0.1013 H       1  LIG1       0.41000000000000003
     14 H           1.8428   -1.2182   -2.4784 H       1  LIG1       0.43999999999999995
@<TRIPOS>BOND
     1    14     9    1
     2     9     3    1
     3     4     3    2
     4     4    11    1
     5     3     5    1
     6     6    13    1
     7     6     1    1
     8     5     1    1
     9     5    12    1
    10     1    10    1
    11     1     2    1
    12     2     8   ar
    13     2     7   ar
