@<TRIPOS>MOLECULE
NYHBQMYGNKIUIF-UUOKFMHZSA-N	6044963	-1038.546159202602
 33 35 0 0 0
SMALL
MULLIKEN NwChem

@<TRIPOS>ATOM
      1 C5*         0.7193    4.4249    0.6296 C.3     1    G1       -0.07000000000000028
      2 C8          1.7044   -0.3352    1.3599 C.2     1    G1       0.20999999999999996
      3 C4*         0.5160    3.3057   -0.3818 C.3     1    G1       0.11000000000000032
      4 C5          0.8550   -2.2554    0.9803 C.2     1    G1       0.13999999999999968
      5 C3*        -0.9597    2.9058   -0.6115 C.3     1    G1       0.08999999999999986
      6 C2*        -0.9096    1.3481   -0.7196 C.3     1    G1       0.040000000000000036
      7 C4          0.3029   -1.4064    0.0330 C.3     1    G1       0.6699999999999999
      8 C6          0.4133   -3.6115    0.9069 C.2     1    G1          0.54
      9 C1*         0.5855    1.0212   -0.5183 C.3     1    G1       0.3200000000000003
     10 C2         -1.0033   -3.1657   -0.9285 C.cat   1    G1       0.6200000000000001
     11 N2         -1.8637   -3.4766   -1.8272 N.pl3   1    G1      -0.7599999999999998
     12 N7          1.7292   -1.5616    1.8008 N.2     1    G1      -0.5599999999999996
     13 N3         -0.5847   -1.8068   -0.9055 N.pl3   1    G1      -0.7400000000000002
     14 N1         -0.4497   -4.0258    0.0167 N.2     1    G1      -0.6200000000000001
     15 N9          0.8288   -0.1679    0.2729 N.pl3   1    G1      -0.5599999999999996
     16 O5*         0.1316    4.1087    1.8797 O.3     1    G1      -0.6600000000000001
     17 O3*        -1.5617    3.5230   -1.7281 O.3     1    G1      -0.6600000000000001
     18 O2*        -1.2824    0.8765   -2.0113 O.3     1    G1      -0.6600000000000001
     19 O6          0.9067   -4.4919    1.7891 O.2     1    G1      -0.6199999999999992
     20 O4*         1.1432    2.1260    0.1552 O.3     1    G1      -0.5399999999999991
     21 H5*1        0.2217    5.3275    0.2614 H       1    G1       0.17000000000000004
     22 H5*2        1.7948    4.6388    0.7259 H       1    G1       0.16000000000000003
     23 H8          2.2651    0.5031    1.7433 H       1    G1       0.20999999999999996
     24 H4*         0.9790    3.5705   -1.3466 H       1    G1       0.16000000000000003
     25 H3*        -1.5452    3.2048    0.2599 H       1    G1       0.18000000000000005
     26 H2*        -1.5106    0.8702    0.0630 H       1    G1       0.18999999999999995
     27 H1*         1.0463    0.8996   -1.5128 H       1    G1       0.19999999999999996
     28 H2         -2.0766   -4.4708   -1.7404 H       1    G1       0.30000000000000004
     29 H3         -0.9798   -1.1761   -1.5972 H       1    G1          0.38
     30 H5*         0.5452    3.2821    2.1783 H       1    G1       0.43000000000000005
     31 H3*        -1.1431    3.1522   -2.5236 H       1    G1       0.43000000000000005
     32 H2*        -2.2252    1.0754   -2.1400 H       1    G1       0.44999999999999996
     33 H6          0.4856   -5.3453    1.5724 H       1    G1       0.44999999999999996
@<TRIPOS>BOND
     1    31    17    1
     2    32    18    1
     3    18     6    1
     4    11    28    1
     5    11    10    1
     6    17     5    1
     7    29    13    1
     8    27     9    1
     9    24     3    1
    10    10    13    1
    11    10    14    2
    12    13     7    1
    13     6     5    1
    14     6     9    1
    15     6    26    1
    16     5     3    1
    17     5    25    1
    18     9    20    1
    19     9    15    1
    20     3    20    1
    21     3     1    1
    22    14     8    1
    23     7    15    1
    24     7     4    1
    25    21     1    1
    26    15     2    1
    27     1    22    1
    28     1    16    1
    29     8     4    2
    30     8    19    1
    31     4    12    1
    32     2    23    1
    33     2    12    2
    34    33    19    1
    35    16    30    1
