@<TRIPOS>MOLECULE
NYOXRYYXRWJDKP-GYKMGIIDSA-N	6044964	-1130.0588469678387
 72 75 0 0 0
SMALL
MULLIKEN NwChem

@<TRIPOS>ATOM
      1 C          -0.5851    4.1317   -4.5174 C.3     1  LIG1      -0.45999999999999996
      2 C           1.2822    2.4438   -4.7479 C.3     1  LIG1      -0.45999999999999996
      3 C           2.8581    3.8684    0.2127 C.3     1  LIG1      -0.4800000000000004
      4 C          -0.7510   -4.1510   -0.5315 C.3     1  LIG1      -0.4800000000000004
      5 C          -0.8803    1.1792   -0.5183 C.3     1  LIG1      -0.5099999999999998
      6 C           0.9895    5.1377   -1.9098 C.3     1  LIG1      -0.28000000000000025
      7 C           1.5364    4.3747   -3.1280 C.3     1  LIG1      -0.2599999999999998
      8 C           0.5365    4.2582   -0.7238 C.3     1  LIG1      -0.2699999999999996
      9 C          -2.8906   -2.3693    1.2727 C.3     1  LIG1      -0.3600000000000003
     10 C          -2.3115   -0.9950    1.7264 C.3     1  LIG1      -0.28000000000000025
     11 C           0.0973    2.7620    1.9235 C.3     1  LIG1      -0.2999999999999998
     12 C          -0.6270    1.5145    2.5201 C.3     1  LIG1      -0.2999999999999998
     13 C           0.1346   -5.4628    2.1748 C.3     1  LIG1       -0.3799999999999999
     14 C           1.1685   -1.5632    0.1522 C.3     1  LIG1      -0.29000000000000004
     15 C           0.5199   -4.0671    1.6698 C.3     1  LIG1      -0.2999999999999998
     16 C           1.2983   -0.1055   -0.3658 C.3     1  LIG1      -0.3099999999999996
     17 C          -2.1790   -4.4343    2.4890 C.2     1  LIG1      -0.28000000000000025
     18 C           0.5492    3.3938   -3.7908 C.3     1  LIG1      -0.08000000000000007
     19 C           1.5573    3.1945   -0.2640 C.3     1  LIG1      -0.08000000000000007
     20 C          -1.9157   -3.4767    1.5778 C.2     1  LIG1      0.1900000000000004
     21 C          -1.2261   -5.4934    2.8615 C.2     1  LIG1       0.45999999999999996
     22 C          -0.7702   -1.0330    1.7275 C.3     1  LIG1      -0.11000000000000032
     23 C           1.0460    2.2101    0.8246 C.3     1  LIG1      -0.09999999999999964
     24 C          -0.0288    0.3179    1.7532 C.3     1  LIG1      -0.11000000000000032
     25 C          -0.2815   -1.8982    0.5333 C.3     1  LIG1      -0.11000000000000032
     26 C          -0.5872   -3.4071    0.8173 C.3     1  LIG1      0.03000000000000025
     27 C           0.3525    0.8913    0.3644 C.3     1  LIG1      0.09999999999999964
     28 O          -1.5145   -6.3662    3.6703 O.2     1  LIG1      -0.5700000000000003
     29 H          -0.1822    4.7563   -5.3254 H       1  LIG1          0.14
     30 H          -1.1497    4.7843   -3.8415 H       1  LIG1       0.15000000000000002
     31 H          -1.2952    3.4258   -4.9649 H       1  LIG1          0.14
     32 H           1.7845    3.0028   -5.5483 H       1  LIG1          0.14
     33 H           2.0458    1.8586   -4.2201 H       1  LIG1          0.14
     34 H           0.5869    1.7387   -5.2181 H       1  LIG1          0.14
     35 H           2.6725    4.4936    1.0965 H       1  LIG1          0.14
     36 H           3.6119    3.1204    0.4834 H       1  LIG1          0.14
     37 H           3.2987    4.5081   -0.5596 H       1  LIG1       0.15000000000000002
     38 H          -1.5487   -3.6998   -1.1327 H       1  LIG1       0.16000000000000003
     39 H           0.1757   -4.0979   -1.1141 H       1  LIG1       0.16000000000000003
     40 H          -1.0032   -5.2054   -0.3881 H       1  LIG1       0.16000000000000003
     41 H          -0.5684    1.6488   -1.4551 H       1  LIG1       0.17000000000000004
     42 H          -1.4116    0.2638   -0.7914 H       1  LIG1       0.15000000000000002
     43 H          -1.5998    1.8475   -0.0339 H       1  LIG1       0.15000000000000002
     44 H           1.7578    5.8440   -1.5718 H       1  LIG1          0.13
     45 H           0.1385    5.7602   -2.2166 H       1  LIG1          0.13
     46 H           2.4393    3.8250   -2.8291 H       1  LIG1          0.14
     47 H           1.8688    5.1005   -3.8849 H       1  LIG1          0.12
     48 H           0.3124    4.9229    0.1209 H       1  LIG1          0.13
     49 H          -0.4105    3.7735   -0.9798 H       1  LIG1          0.14
     50 H          -3.0645   -2.3426    0.1881 H       1  LIG1       0.17000000000000004
     51 H          -3.8607   -2.5597    1.7425 H       1  LIG1       0.16000000000000003
     52 H          -2.6908   -0.2110    1.0633 H       1  LIG1       0.15000000000000002
     53 H          -2.6719   -0.7579    2.7335 H       1  LIG1       0.15000000000000002
     54 H          -0.6364    3.4544    1.5001 H       1  LIG1          0.14
     55 H           0.6522    3.3227    2.6832 H       1  LIG1          0.13
     56 H          -1.7078    1.5844    2.3606 H       1  LIG1          0.14
     57 H          -0.4779    1.4181    3.6012 H       1  LIG1          0.13
     58 H           0.0897   -6.1776    1.3411 H       1  LIG1       0.18999999999999995
     59 H           0.8754   -5.8581    2.8773 H       1  LIG1       0.17000000000000004
     60 H           1.5361   -2.2524   -0.6179 H       1  LIG1          0.14
     61 H           1.8198   -1.7058    1.0237 H       1  LIG1          0.14
     62 H           1.4509   -4.1258    1.0955 H       1  LIG1       0.15000000000000002
     63 H           0.7249   -3.4243    2.5357 H       1  LIG1       0.16000000000000003
     64 H           1.0859   -0.0864   -1.4424 H       1  LIG1          0.14
     65 H           2.3433    0.2137   -0.2590 H       1  LIG1          0.13
     66 H          -3.1343   -4.4654    3.0096 H       1  LIG1          0.14
     67 H           0.0983    2.7757   -3.0029 H       1  LIG1       0.15000000000000002
     68 H           1.8139    2.5758   -1.1362 H       1  LIG1          0.13
     69 H          -0.4792   -1.5632    2.6461 H       1  LIG1          0.13
     70 H           1.9500    1.8649    1.3468 H       1  LIG1          0.12
     71 H           0.9367    0.1030    2.2347 H       1  LIG1          0.13
     72 H          -0.8908   -1.6272   -0.3385 H       1  LIG1           0.14
@<TRIPOS>BOND
     1    32     2    1
     2    29     1    1
     3    34     2    1
     4    31     1    1
     5     2    33    1
     6     2    18    1
     7     1    30    1
     8     1    18    1
     9    47     7    1
    10    18     7    1
    11    18    67    1
    12     7    46    1
    13     7     6    1
    14    45     6    1
    15     6    44    1
    16     6     8    1
    17    41     5    1
    18    64    16    1
    19    68    19    1
    20    38     4    1
    21    39     4    1
    22    49     8    1
    23    42     5    1
    24     8    19    1
    25     8    48    1
    26    60    14    1
    27    37     3    1
    28     4    40    1
    29     4    26    1
    30     5    43    1
    31     5    27    1
    32    16    65    1
    33    16    14    1
    34    16    27    1
    35    72    25    1
    36    19     3    1
    37    19    23    1
    38    14    25    1
    39    14    61    1
    40    50     9    1
    41     3    36    1
    42     3    35    1
    43    27    23    1
    44    27    24    1
    45    25    26    1
    46    25    22    1
    47    26    20    1
    48    26    15    1
    49    23    70    1
    50    23    11    1
    51    52    10    1
    52    62    15    1
    53     9    20    1
    54     9    10    1
    55     9    51    1
    56    58    13    1
    57    54    11    1
    58    20    17    2
    59    15    13    1
    60    15    63    1
    61    10    22    1
    62    10    53    1
    63    22    24    1
    64    22    69    1
    65    24    71    1
    66    24    12    1
    67    11    12    1
    68    11    55    1
    69    13    21    1
    70    13    59    1
    71    56    12    1
    72    17    21    1
    73    17    66    1
    74    12    57    1
    75    21    28    2
