@<TRIPOS>MOLECULE
NZAAQWRNVFEKME-UHFFFAOYSA-L	6044967	-909.1113004982498
 13 12 0 0 0
SMALL
MULLIKEN NwChem

@<TRIPOS>ATOM
      1 C           1.5736    0.3969   -1.1023 C.2     1  LIG1       0.2400000000000002
      2 C          -0.6022    1.3844   -0.0616 C.3     1  LIG1       -0.11000000000000032
      3 C           0.2327    1.0831   -1.3157 C.2     1  LIG1       0.41999999999999993
      4 O           2.4158    0.2803   -1.9934 O.2     1  LIG1      -0.5299999999999994
      5 O          -0.0700    1.6013   -2.3944 O.2     1  LIG1      -0.5800000000000001
      6 O          -2.1773   -1.3510    0.5582 O.3     1  LIG1      -0.7300000000000004
      7 O          -0.1126   -1.0218   -0.9659 O.2     1  LIG1        -0.75
      8 O           0.2128   -1.9384    1.4709 O.3     1  LIG1      -0.7400000000000002
      9 O          -0.3911    0.5144    1.0114 O.3     1  LIG1      -0.6199999999999992
     10 P          -0.6710   -1.1461    0.5257 P.3     1  LIG1       0.9900000000000002
     11 H           1.8070    0.1406   -0.0540 H       1  LIG1          0.12
     12 H          -0.3390    2.4128    0.2634 H       1  LIG1       0.16000000000000003
     13 H          -1.6569    1.4145   -0.3917 H       1  LIG1           0.13
@<TRIPOS>BOND
     1     5     3    2
     2     4     1    2
     3     3     1    1
     4     3     2    1
     5     1    11    1
     6     7    10    2
     7    13     2    1
     8     2    12    1
     9     2     9    1
    10    10     6    1
    11    10     9    1
    12    10     8    1
