@<TRIPOS>MOLECULE
OAKURXIZZOAYBC-UHFFFAOYSA-M	6044969	-341.90253497909885
 9 8 0 0 0
SMALL
MULLIKEN NwChem

@<TRIPOS>ATOM
      1 C           0.3212    0.3926    0.8683 C.3     1  LIG1       -0.4299999999999997
      2 C          -0.0066    1.5631    0.0189 C.2     1  LIG1       0.2599999999999998
      3 C           0.2649   -0.9762   -0.0140 C.2     1  LIG1       0.5199999999999996
      4 O          -0.9084    2.3725    0.2076 O.2     1  LIG1      -0.4900000000000002
      5 O          -0.4229   -1.8822    0.4890 O.co2   1  LIG1      -0.6400000000000006
      6 O           0.9487   -0.9167   -1.0586 O.co2   1  LIG1      -0.6400000000000006
      7 H          -0.3307    0.3447    1.7446 H       1  LIG1          0.13
      8 H           1.3750    0.4588    1.1741 H       1  LIG1       0.18000000000000005
      9 H           0.6292    1.6315   -0.8922 H       1  LIG1       0.10999999999999999
@<TRIPOS>BOND
     1     6     3   ar
     2     9     2    1
     3     3     5   ar
     4     3     1    1
     5     2     4    2
     6     2     1    1
     7     1     8    1
     8     1     7    1
