@<TRIPOS>MOLECULE
OBFAPCIUSYHFIE-UHFFFAOYSA-N	6044970	-591.5493792931278
 22 23 0 0 0
SMALL
MULLIKEN NwChem

@<TRIPOS>ATOM
      1 C           2.5326    1.4512   -0.0747 C.ar    1  LIG1      -0.2400000000000002
      2 C           1.3646    2.1991   -0.1753 C.ar    1  LIG1      -0.1900000000000004
      3 C          -1.8462   -1.6782   -0.3213 C.3     1  LIG1       -0.41999999999999993
      4 C          -2.0727   -2.1163    1.1184 C.2     1  LIG1       0.2699999999999996
      5 C           1.2904   -0.6492   -0.1389 C.ar    1  LIG1      -0.29000000000000004
      6 C          -2.0031    0.8880   -0.4205 C.ar    1  LIG1           0.0
      7 C          -1.2864   -0.2839   -0.3553 C.ar    1  LIG1      0.009999999999999787
      8 C           2.4955    0.0389   -0.0580 C.ar    1  LIG1       0.33000000000000007
      9 C           0.1004    0.0882   -0.2422 C.ar    1  LIG1       0.07000000000000028
     10 C           0.1547    1.5088   -0.2574 C.ar    1  LIG1       0.29000000000000004
     11 N          -1.1466    1.9670   -0.3647 N.ar    1  LIG1      -0.6799999999999997
     12 O          -3.1301   -2.5117    1.5556 O.2     1  LIG1      -0.4499999999999993
     13 O           3.6437   -0.7101    0.0386 O.3     1  LIG1      -0.6899999999999995
     14 H           3.4925    1.9595   -0.0087 H       1  LIG1       0.16000000000000003
     15 H           1.4013    3.2850   -0.1881 H       1  LIG1       0.16000000000000003
     16 H          -2.7978   -1.7582   -0.8561 H       1  LIG1       0.18000000000000005
     17 H          -1.1350   -2.3772   -0.7863 H       1  LIG1       0.19999999999999996
     18 H          -1.1779   -2.0181    1.7737 H       1  LIG1          0.14
     19 H           1.2958   -1.7345   -0.1214 H       1  LIG1       0.15000000000000002
     20 H          -3.0712    1.0342   -0.5076 H       1  LIG1       0.18999999999999995
     21 H          -1.4230    2.9339   -0.4266 H       1  LIG1          0.38
     22 H           4.4058   -0.1139    0.0875 H       1  LIG1       0.44999999999999996
@<TRIPOS>BOND
     1    16     3    1
     2    17     3    1
     3    20     6    1
     4    21    11    1
     5     6    11   ar
     6     6     7   ar
     7    11    10   ar
     8     7     3    1
     9     7     9   ar
    10     3     4    1
    11    10     9   ar
    12    10     2   ar
    13     9     5   ar
    14    15     2    1
    15     2     1   ar
    16     5    19    1
    17     5     8   ar
    18     1     8   ar
    19     1    14    1
    20     8    13    1
    21    13    22    1
    22     4    12    2
    23     4    18    1
