@<TRIPOS>MOLECULE
OBQMLSFOUZUIOB-SHUUEZRQSA-M	11085305	-1327.8302391566242
 32 32 0 0 0
SMALL
MULLIKEN NwChem

@<TRIPOS>ATOM
      1 C          -3.0248   -3.4976   -0.3467 C.3     1  LIG1       -0.21999999999999975
      2 C           1.3466    1.5392    1.5132 C.3     1  LIG1       -0.04999999999999982
      3 C           0.4295    1.3400    0.3101 C.3     1  LIG1       0.08000000000000007
      4 C          -2.6843   -2.0043   -0.4761 C.2     1  LIG1       0.5099999999999998
      5 C          -0.9630    1.9895    0.4926 C.3     1  LIG1       0.08000000000000007
      6 C          -1.9086    0.7643    0.5557 C.3     1  LIG1       0.11000000000000032
      7 C          -1.1645   -0.2869   -0.2972 C.3     1  LIG1       0.2599999999999998
      8 N          -3.9689   -3.9886   -1.3678 N.3     1  LIG1      -0.7599999999999998
      9 N          -1.4683   -1.6591   -0.1280 N.am    1  LIG1      -0.5999999999999996
     10 O          -3.6474   -1.2573   -0.8922 O.2     1  LIG1      -0.6999999999999993
     11 O          -1.2986    2.7858   -0.6267 O.3     1  LIG1      -0.6999999999999993
     12 O          -3.1680    1.1206    0.0350 O.3     1  LIG1      -0.7300000000000004
     13 O           4.6479   -0.4030    0.8404 O.3     1  LIG1      -0.6600000000000001
     14 O           2.6378   -0.6912   -0.6210 O.3     1  LIG1      -0.7100000000000009
     15 O           3.8320    1.6685   -0.4802 O.2     1  LIG1      -0.6099999999999994
     16 O           2.4916    0.6640    1.5342 O.3     1  LIG1      -0.5600000000000005
     17 O           0.2147   -0.0695    0.1429 O.3     1  LIG1      -0.5899999999999999
     18 P           3.4100    0.4344    0.2154 P.3     1  LIG1          1.17
     19 H          -2.1080   -4.0950   -0.3651 H       1  LIG1          0.14
     20 H          -3.4902   -3.6539    0.6382 H       1  LIG1       0.15000000000000002
     21 H           1.6814    2.5831    1.5477 H       1  LIG1       0.18999999999999995
     22 H           0.8059    1.3026    2.4340 H       1  LIG1       0.18999999999999995
     23 H           0.8915    1.7603   -0.5935 H       1  LIG1       0.18000000000000005
     24 H          -1.0042    2.5949    1.4141 H       1  LIG1       0.15000000000000002
     25 H          -1.9735    0.3791    1.5857 H       1  LIG1          0.13
     26 H          -1.2405    0.0415   -1.3523 H       1  LIG1          0.12
     27 H          -4.6665   -3.2424   -1.4421 H       1  LIG1       0.31000000000000005
     28 H          -3.4833   -3.9363   -2.2664 H       1  LIG1       0.31000000000000005
     29 H          -2.2230    2.5065   -0.8131 H       1  LIG1       0.42000000000000004
     30 H          -3.4975    0.2679   -0.4093 H       1  LIG1       0.43000000000000005
     31 H           4.3630   -1.3176    0.9981 H       1  LIG1          0.48
     32 H           1.6459   -0.6548   -0.4485 H       1  LIG1           0.48
@<TRIPOS>BOND
     1    28     8    1
     2    27     8    1
     3     8     1    1
     4    26     7    1
     5    10     4    2
     6    29    11    1
     7    11     5    1
     8    14    32    1
     9    14    18    1
    10    23     3    1
    11    15    18    2
    12     4     1    1
    13     4     9   am
    14    30    12    1
    15    19     1    1
    16     1    20    1
    17     7     9    1
    18     7    17    1
    19     7     6    1
    20    12     6    1
    21    17     3    1
    22    18    13    1
    23    18    16    1
    24     3     5    1
    25     3     2    1
    26     5     6    1
    27     5    24    1
    28     6    25    1
    29    13    31    1
    30     2    16    1
    31     2    21    1
    32     2    22    1
