@<TRIPOS>MOLECULE
OCLCLRXKNJCOJD-UMMCILCDSA-L	11085304	-1568.4249679401444
 37 38 0 0 0
SMALL
MULLIKEN NwChem

@<TRIPOS>ATOM
      1 C           2.5063    0.8210    2.1046 C.3     1  LIG1       -0.08000000000000007
      2 C           1.3519   -0.1296    1.7944 C.3     1  LIG1       0.1299999999999999
      3 C          -2.9667    0.2425   -1.8037 C.ar    1  LIG1       0.03000000000000025
      4 C           1.3849   -0.8250    0.4281 C.3     1  LIG1       0.08999999999999986
      5 C          -0.0504   -1.3487    0.3437 C.3     1  LIG1       0.07000000000000028
      6 C          -2.7467    0.2575   -0.4650 C.ar    1  LIG1       0.4900000000000002
      7 C          -4.2850   -0.2011   -2.3202 C.ar    1  LIG1           0.5
      8 C          -0.8564   -0.2174    1.0318 C.3     1  LIG1          0.25
      9 C          -5.0704   -0.4115   -0.1029 C.ar    1  LIG1       0.5599999999999996
     10 N          -1.9164    0.5805   -2.7307 N.pl3   1  LIG1      -0.8300000000000001
     11 N          -5.9635   -0.5606    0.8428 N.pl3   1  LIG1      -0.8200000000000003
     12 N          -1.5416    0.6921    0.1239 N.pl3   1  LIG1      -0.6500000000000004
     13 N          -3.7630   -0.1263    0.3806 N.ar    1  LIG1      -0.6900000000000004
     14 N          -5.2792   -0.5082   -1.4427 N.ar    1  LIG1      -0.6699999999999999
     15 O           2.3129   -1.8862    0.3246 O.3     1  LIG1      -0.7200000000000006
     16 O          -0.1586   -2.5506    1.1089 O.3     1  LIG1      -0.6899999999999995
     17 O          -4.4166   -0.2939   -3.5673 O.2     1  LIG1      -0.6899999999999995
     18 O           5.4129    0.8594    1.6960 O.3     1  LIG1      -0.6899999999999995
     19 O           4.3785   -0.2468   -0.3721 O.3     1  LIG1      -0.7599999999999998
     20 O           4.9209    2.2546   -0.5308 O.2     1  LIG1      -0.6799999999999997
     21 O           3.0102    1.5013    0.9598 O.3     1  LIG1      -0.5800000000000001
     22 O           0.0949    0.5591    1.7779 O.3     1  LIG1      -0.5500000000000007
     23 P           4.5914    1.2157    0.4952 P.3     1  LIG1       1.0999999999999996
     24 H           3.3135    0.2583    2.5855 H       1  LIG1       0.17000000000000004
     25 H           2.1447    1.5691    2.8237 H       1  LIG1       0.16000000000000003
     26 H           1.3336   -0.9109    2.5731 H       1  LIG1          0.14
     27 H           1.5570   -0.0591   -0.3384 H       1  LIG1       0.16000000000000003
     28 H          -0.4041   -1.5098   -0.6833 H       1  LIG1       0.15000000000000002
     29 H          -1.5926   -0.6704    1.7049 H       1  LIG1       0.16000000000000003
     30 H          -2.0016    1.5709   -2.9774 H       1  LIG1       0.32999999999999996
     31 H          -2.1943    0.1008   -3.5922 H       1  LIG1       0.31999999999999995
     32 H          -6.8405   -0.7641    0.3554 H       1  LIG1          0.26
     33 H          -0.9099    0.9693   -0.6260 H       1  LIG1          0.35
     34 H          -3.7213    0.1350    1.3557 H       1  LIG1          0.35
     35 H           3.1844   -1.4559    0.1512 H       1  LIG1       0.45999999999999996
     36 H           0.7087   -2.9809    0.9992 H       1  LIG1       0.43000000000000005
     37 H           4.1369    0.0328   -1.2697 H       1  LIG1       0.44999999999999996
@<TRIPOS>BOND
     1    31    10    1
     2    17     7    2
     3    30    10    1
     4    10     3    1
     5     7     3   ar
     6     7    14   ar
     7     3     6   ar
     8    14     9   ar
     9    37    19    1
    10    28     5    1
    11    33    12    1
    12    20    23    2
    13     6    12    1
    14     6    13   ar
    15    19    23    1
    16    27     4    1
    17     9    13   ar
    18     9    11    1
    19    12     8    1
    20    35    15    1
    21    15     4    1
    22     5     4    1
    23     5     8    1
    24     5    16    1
    25    32    11    1
    26    13    34    1
    27     4     2    1
    28    23    21    1
    29    23    18    1
    30    21     1    1
    31    36    16    1
    32     8    29    1
    33     8    22    1
    34    22     2    1
    35     2     1    1
    36     2    26    1
    37     1    24    1
    38     1    25    1
