@<TRIPOS>MOLECULE
OCYMERZCMYJQQO-UHFFFAOYSA-L	11085303	-1328.8752405285022
 21 21 0 0 0
SMALL
MULLIKEN NwChem

@<TRIPOS>ATOM
      1 C           1.5574    1.0478    1.5339 C.3     1  LIG1      -0.5899999999999999
      2 C           0.1065   -0.1490   -0.9794 C.3     1  LIG1       -0.3899999999999997
      3 C          -0.8533   -1.1351   -0.2085 C.3     1  LIG1           0.0
      4 C           3.8975   -1.0063   -0.3460 C.ar    1  LIG1       -0.15000000000000036
      5 C           2.1917    0.1471    0.5074 C.ar    1  LIG1       0.2699999999999996
      6 C           1.5341   -0.3220   -0.6148 C.ar    1  LIG1       -0.16000000000000014
      7 N           3.5178   -0.2416    0.6374 N.ar    1  LIG1      -0.4500000000000002
      8 O          -1.8174    1.9127   -0.0391 O.2     1  LIG1      -0.7899999999999991
      9 O          -1.4914    0.4584    2.0749 O.3     1  LIG1      -0.7799999999999994
     10 O          -3.8914    0.7687    1.0700 O.3     1  LIG1      -0.7599999999999998
     11 O          -2.1511   -0.6702   -0.1809 O.3     1  LIG1      -0.6600000000000001
     12 P          -2.3852    0.7933    0.8601 P.3     1  LIG1       0.9800000000000004
     13 S           2.6538   -1.3289   -1.5371 S.2     1  LIG1      0.17999999999999972
     14 H           2.1112    0.9635    2.4774 H       1  LIG1       0.15000000000000002
     15 H           1.6064    2.0975    1.2096 H       1  LIG1       0.15000000000000002
     16 H           0.4852    0.8205    1.7082 H       1  LIG1       0.22999999999999998
     17 H          -0.0509   -0.2568   -2.0611 H       1  LIG1          0.14
     18 H          -0.2616    0.8560   -0.6886 H       1  LIG1       0.18999999999999995
     19 H          -0.8126   -2.1203   -0.7231 H       1  LIG1       0.09999999999999998
     20 H          -0.4455   -1.2667    0.8066 H       1  LIG1       0.10999999999999999
     21 H           4.8980   -1.4184   -0.4443 H       1  LIG1       0.20999999999999996
@<TRIPOS>BOND
     1    17     2    1
     2    13     6   ar
     3    13     4   ar
     4     2    18    1
     5     2     6    1
     6     2     3    1
     7    19     3    1
     8     6     5   ar
     9    21     4    1
    10     4     7   ar
    11     3    11    1
    12     3    20    1
    13    11    12    1
    14     8    12    2
    15     5     7   ar
    16     5     1    1
    17    12    10    1
    18    12     9    1
    19    15     1    1
    20     1    16    1
    21     1    14    1
