@<TRIPOS>MOLECULE
ODBLHEXUDAPZAU-ZAFYKAAXSA-K	6044975	-758.5633537322428
 18 17 0 0 0
SMALL
MULLIKEN NwChem

@<TRIPOS>ATOM
      1 C          -0.0833    1.3239    0.6656 C.3     1  LIG1       -0.3700000000000001
      2 C          -0.5021   -0.1760    0.5372 C.3     1  LIG1       -0.15000000000000036
      3 C           1.4096    1.8238    0.5979 C.2     1  LIG1           0.5
      4 C          -0.2312   -0.7895   -0.8671 C.3     1  LIG1       0.04999999999999982
      5 C           0.0254   -1.0295    1.7648 C.2     1  LIG1       0.5099999999999998
      6 C          -1.2356   -0.2525   -1.9680 C.2     1  LIG1       0.5099999999999998
      7 O           1.6846    2.7755    1.3997 O.co2   1  LIG1      -0.6999999999999993
      8 O           2.1713    1.3538   -0.2897 O.co2   1  LIG1      -0.6699999999999999
      9 O          -0.3882   -2.2262   -0.8594 O.3     1  LIG1      -0.7300000000000004
     10 O          -0.7970   -1.1150    2.7350 O.co2   1  LIG1      -0.7100000000000009
     11 O           1.1865   -1.5093    1.7173 O.co2   1  LIG1      -0.6899999999999995
     12 O          -1.1906    0.9436   -2.3422 O.co2   1  LIG1      -0.6500000000000004
     13 O          -2.0599   -1.1369   -2.4099 O.co2   1  LIG1      -0.6899999999999995
     14 H          -0.4947    1.6916    1.6170 H       1  LIG1       0.09999999999999998
     15 H          -0.5972    1.8620   -0.1458 H       1  LIG1          0.13
     16 H          -1.5981   -0.1837    0.6678 H       1  LIG1       0.07999999999999996
     17 H           0.7955   -0.5301   -1.1502 H       1  LIG1       0.09999999999999998
     18 H          -1.1991   -2.2798   -1.4243 H       1  LIG1           0.38
@<TRIPOS>BOND
     1    13     6   ar
     2    12     6   ar
     3     6     4    1
     4    18     9    1
     5    17     4    1
     6     4     9    1
     7     4     2    1
     8     8     3   ar
     9    15     1    1
    10     2     1    1
    11     2    16    1
    12     2     5    1
    13     3     1    1
    14     3     7   ar
    15     1    14    1
    16    11     5   ar
    17     5    10   ar
