@<TRIPOS>MOLECULE
ODHCTXKNWHHXJC-VKHMYHEASA-M	6044976	-474.62662835005335
 15 15 0 0 0
SMALL
MULLIKEN NwChem

@<TRIPOS>ATOM
      1 C          -1.2049    0.7690    0.3471 C.3     1  LIG1      -0.2999999999999998
      2 C          -0.2784    1.9458    0.6252 C.3     1  LIG1       -0.3700000000000001
      3 CA         -0.2102   -0.4392    0.5065 C.3     1  LIG1       -0.009999999999999787
      4 C           1.1416    1.3681    0.2771 C.2     1  LIG1       0.46999999999999975
      5 C          -0.6212   -1.5977   -0.3838 C.2     1  LIG1       0.5700000000000003
      6 N           1.1201    0.0319    0.2105 N.am    1  LIG1      -0.6299999999999999
      7 O           2.1126    2.1374    0.1348 O.2     1  LIG1      -0.7100000000000009
      8 OXT        -1.0261   -2.6889   -0.0158 O.2     1  LIG1      -0.5399999999999991
      9 O          -0.5227   -1.3212   -1.7173 O.3     1  LIG1      -0.5899999999999999
     10 H          -2.0769    0.6820    1.0101 H       1  LIG1          0.14
     11 H          -1.5680    0.8058   -0.6870 H       1  LIG1       0.15000000000000002
     12 H          -0.4874    2.8430    0.0312 H       1  LIG1          0.13
     13 H          -0.2918    2.2439    1.6848 H       1  LIG1          0.14
     14 HA         -0.3069   -0.8511    1.5315 H       1  LIG1       0.10999999999999999
     15 H          -0.8106   -2.1449   -2.1511 H       1  LIG1       0.43999999999999995
@<TRIPOS>BOND
     1    15     9    1
     2     9     5    1
     3    11     1    1
     4     5     8    2
     5     5     3    1
     6    12     2    1
     7     7     4    2
     8     6     4   am
     9     6     3    1
    10     4     2    1
    11     1     3    1
    12     1     2    1
    13     1    10    1
    14     3    14    1
    15     2    13    1
