@<TRIPOS>MOLECULE
ODKSFYDXXFIFQN-BYPYZUCNSA-O	6119246	-606.6202418539567
 27 26 0 0 0
SMALL
MULLIKEN NwChem

@<TRIPOS>ATOM
      1 CG          0.6797    0.5005    0.9164 C.3     1  ARG1      -0.3099999999999996
      2 CB          0.1019    1.8412    0.3809 C.3     1  ARG1      -0.2999999999999998
      3 CD         -0.3044   -0.6729    0.7939 C.3     1  ARG1       -0.13999999999999968
      4 CA          0.7407    2.3127   -0.9445 C.3     1  ARG1       -0.09999999999999964
      5 C           0.3320    1.4614   -2.1564 C.2     1  ARG1       0.6500000000000004
      6 CZ         -0.3925   -2.9544    1.8281 C.cat   1  ARG1       0.7199999999999998
      7 N           0.2564    3.7133   -1.2961 N.4     1  ARG1       -0.7199999999999998
      8 NH2         0.1864   -3.9585    2.5616 N.pl3   1  ARG1      -0.4800000000000004
      9 NH1        -1.7087   -3.0867    1.6700 N.pl3   1  ARG1      -0.6900000000000004
     10 NE          0.2851   -1.8924    1.3711 N.pl3   1  ARG1      -0.5599999999999996
     11 O          -0.4825    1.8514   -2.9598 O.2     1  ARG1      -0.4900000000000002
     12 OXT         0.9532    0.2831   -2.1609 O.3     1  ARG1      -0.5600000000000005
     13 HG1         0.9361    0.6291    1.9724 H       1  ARG1       0.18999999999999995
     14 HG2         1.6066    0.2490    0.3881 H       1  ARG1       0.18999999999999995
     15 HB1        -0.9862    1.7792    0.2513 H       1  ARG1       0.19999999999999996
     16 HB2         0.2845    2.6183    1.1315 H       1  ARG1       0.20999999999999996
     17 HD1        -1.2253   -0.4500    1.3468 H       1  ARG1       0.20999999999999996
     18 HD2        -0.5641   -0.8600   -0.2558 H       1  ARG1       0.21999999999999997
     19 HA          1.8290    2.3560   -0.8546 H       1  ARG1          0.26
     20 H1          0.0713    4.2965   -0.4706 H       1  ARG1      0.45999999999999996
     21 H2          0.9344    4.2141   -1.8865 H       1  ARG1      0.45999999999999996
     22 H3         -0.6060    3.6207   -1.8651 H       1  ARG1      0.43999999999999995
     23 HH2         1.2110   -3.9810    2.4853 H       1  ARG1          0.39
     24 HH11       -2.2703   -2.5027    1.0632 H       1  ARG1       0.43000000000000005
     25 HH12       -2.1623   -3.8749    2.1249 H       1  ARG1       0.42000000000000004
     26 HE          1.2960   -1.9294    1.4511 H       1  ARG1       0.42000000000000004
     27 HXT         0.7005   -0.2076   -2.9717 H       1  ARG1           0.47
@<TRIPOS>BOND
     1    27    12    1
     2    11     5    2
     3    12     5    1
     4     5     4    1
     5    21     7    1
     6    22     7    1
     7     7     4    1
     8     7    20    1
     9     4    19    1
    10     4     2    1
    11    18     3    1
    12    15     2    1
    13     2     1    1
    14     2    16    1
    15    14     1    1
    16     3     1    1
    17     3    17    1
    18     3    10    1
    19     1    13    1
    20    24     9    1
    21    10    26    1
    22    10     6    1
    23     9     6    1
    24     9    25    1
    25     6     8    2
    26    23     8    1
