@<TRIPOS>MOLECULE
OEJZZCGRGVFWHK-WVZVXSGGSA-K	6044978	-797.8601078026994
 21 20 0 0 0
SMALL
MULLIKEN NwChem

@<TRIPOS>ATOM
      1 C          -0.2483    0.0699   -0.9130 C.3     1  LIG1      -0.2599999999999998
      2 C          -0.9766    1.3896   -1.2393 C.3     1  LIG1       -0.3600000000000003
      3 C           0.5058    0.0876    0.4481 C.3     1  LIG1       -0.15000000000000036
      4 C          -1.6874    1.5188   -2.6356 C.2     1  LIG1           0.5
      5 C           0.9214   -1.3227    0.9536 C.3     1  LIG1       0.05999999999999961
      6 C           1.7785    1.0221    0.3446 C.2     1  LIG1       0.5199999999999996
      7 C          -0.2578   -2.3289    1.2317 C.2     1  LIG1       0.5099999999999998
      8 O          -2.6731    2.3208   -2.6718 O.co2   1  LIG1      -0.6999999999999993
      9 O          -1.2086    0.8676   -3.6057 O.co2   1  LIG1      -0.6899999999999995
     10 O           1.6488   -1.2118    2.1968 O.3     1  LIG1      -0.7300000000000004
     11 O           1.7028    2.1513    0.9104 O.co2   1  LIG1      -0.6999999999999993
     12 O           2.7449    0.5679   -0.3330 O.co2   1  LIG1      -0.6899999999999995
     13 O          -0.5589   -2.4518    2.4723 O.co2   1  LIG1      -0.6799999999999997
     14 O          -0.7841   -2.9432    0.2738 O.co2   1  LIG1      -0.6600000000000001
     15 H           0.4762   -0.1379   -1.7096 H       1  LIG1       0.09999999999999998
     16 H          -0.9662   -0.7601   -0.9240 H       1  LIG1          0.12
     17 H          -1.7324    1.6003   -0.4666 H       1  LIG1       0.10999999999999999
     18 H          -0.2510    2.2147   -1.1572 H       1  LIG1          0.13
     19 H          -0.1549    0.5160    1.2179 H       1  LIG1       0.07999999999999996
     20 H           1.5880   -1.7585    0.1968 H       1  LIG1       0.08999999999999997
     21 H           0.9411   -1.5553    2.7969 H       1  LIG1           0.39
@<TRIPOS>BOND
     1     9     4   ar
     2     8     4   ar
     3     4     2    1
     4    15     1    1
     5     2    18    1
     6     2     1    1
     7     2    17    1
     8    16     1    1
     9     1     3    1
    10    12     6   ar
    11    20     5    1
    12    14     7   ar
    13     6     3    1
    14     6    11   ar
    15     3     5    1
    16     3    19    1
    17     5     7    1
    18     5    10    1
    19     7    13   ar
    20    10    21    1
