@<TRIPOS>MOLECULE
OEXFMSFODMQEPE-HDRQGHTBSA-J	11085302	-4138.650843472819
 97 99 0 0 0
SMALL
MULLIKEN NwChem

@<TRIPOS>ATOM
      1 C         -17.7468   -0.7149    1.2376 C.3     1  LIG1      -0.45999999999999996
      2 C          -1.4604    2.2738   -1.3556 C.3     1  LIG1      -0.46999999999999975
      3 C          -0.2531    2.0956    0.8524 C.3     1  LIG1      -0.45999999999999996
      4 C         -16.2196   -0.7748    1.1277 C.3     1  LIG1        -0.25
      5 C         -15.5916    0.5962    0.8541 C.3     1  LIG1        -0.25
      6 C         -14.0554    0.6115    0.8920 C.3     1  LIG1      -0.28000000000000025
      7 C         -13.3346   -0.3770   -0.0537 C.3     1  LIG1       -0.33000000000000007
      8 C          -7.2482    2.4000   -0.2390 C.3     1  LIG1       -0.3200000000000003
      9 C          -6.0860    1.6124   -0.8714 C.3     1  LIG1       -0.11000000000000032
     10 C         -10.8847    2.0082   -0.9343 C.3     1  LIG1       -0.1200000000000001
     11 C         -10.9752    0.7655   -1.8402 C.3     1  LIG1       -0.4500000000000002
     12 C           4.9192   -2.1539    0.5016 C.3     1  LIG1       -0.1299999999999999
     13 C          -0.9053    0.0163   -0.3820 C.3     1  LIG1       -0.05999999999999961
     14 C          11.9665    1.1278   -0.9123 C.ar    1  LIG1       0.15000000000000036
     15 C           7.6968    1.5351   -0.2491 C.ar    1  LIG1       0.20999999999999996
     16 C           6.4212   -2.3119    0.6129 C.3     1  LIG1       0.16000000000000014
     17 C          -8.5871    2.3023   -0.9871 C.2     1  LIG1       0.4900000000000002
     18 C         -13.7423   -0.1886   -1.5121 C.2     1  LIG1       0.29000000000000004
     19 C           9.5891    2.3049   -0.8031 C.ar    1  LIG1       0.1900000000000004
     20 C           7.8379   -0.7823    1.9160 C.3     1  LIG1       0.11000000000000032
     21 C           6.9255   -2.0618    2.0759 C.3     1  LIG1       0.07000000000000028
     22 C          -2.6830    1.4471    0.7045 C.3     1  LIG1       0.08000000000000007
     23 C          10.7231    3.0423   -1.1684 C.ar    1  LIG1       0.4400000000000004
     24 C           9.7981    0.9467   -0.4950 C.ar    1  LIG1       0.5300000000000002
     25 C          -3.8946    0.9708   -0.1653 C.2     1  LIG1       0.5199999999999996
     26 C           8.2415   -0.8488    0.4187 C.3     1  LIG1          0.25
     27 C          -1.3159    1.4568   -0.0622 C.3     1  LIG1       0.05999999999999961
     28 N          10.6313    4.3827   -1.5154 N.pl3   1  LIG1      -0.7800000000000002
     29 N          -9.6393    1.9940   -0.2122 N.am    1  LIG1      -0.6299999999999999
     30 N          -4.8427    1.8862   -0.1711 N.am    1  LIG1      -0.6299999999999999
     31 N          11.9241    2.4468   -1.2128 N.ar    1  LIG1        -0.54
     32 N          10.9790    0.3142   -0.5532 N.ar    1  LIG1      -0.5300000000000002
     33 N           8.2622    2.6576   -0.6478 N.ar    1  LIG1      -0.5700000000000003
     34 N           8.5598    0.4634   -0.1435 N.ar    1  LIG1      -0.5099999999999998
     35 O          -8.6033    2.5445   -2.2312 O.2     1  LIG1      -0.7100000000000009
     36 O         -14.8762   -0.4866   -1.8776 O.2     1  LIG1         -0.5
     37 O           8.8681   -0.6130    2.8004 O.3     1  LIG1      -0.7400000000000002
     38 O          -2.9496    2.7409    1.2204 O.3     1  LIG1      -0.7200000000000006
     39 O          -3.8275   -0.1683   -0.7100 O.2     1  LIG1      -0.7100000000000009
     40 O          10.0213   -2.8037    2.7868 O.3     1  LIG1      -0.8000000000000007
     41 O           9.0431   -5.2136    2.7651 O.3     1  LIG1      -0.7200000000000006
     42 O           8.9499   -3.7042    0.6171 O.2     1  LIG1      -0.7599999999999998
     43 O           5.1743   -0.1371   -1.6256 O.3     1  LIG1      -0.6999999999999993
     44 O           4.0804   -1.8404   -3.3140 O.2     1  LIG1      -0.5700000000000003
     45 O           1.6348   -1.5441    0.6204 O.3     1  LIG1      -0.6799999999999997
     46 O           0.9649   -2.4666   -1.6978 O.2     1  LIG1      -0.6099999999999994
     47 O           4.4072   -2.4527   -0.8351 O.3     1  LIG1      -0.5600000000000005
     48 O           0.4631    0.0403   -0.9644 O.3     1  LIG1      -0.5199999999999996
     49 O           7.0591   -1.3117   -0.2467 O.3     1  LIG1      -0.5999999999999996
     50 O           7.4761   -3.1737    2.6871 O.3     1  LIG1      -0.6600000000000001
     51 O           2.7619   -0.5513   -1.4497 O.3     1  LIG1      -0.5999999999999996
     52 P           9.0370   -3.8360    2.1438 P.3     1  LIG1       1.0299999999999994
     53 P           4.1386   -1.3122   -1.9382 P.3     1  LIG1       1.2300000000000004
     54 P           1.3736   -1.2483   -0.9640 P.3     1  LIG1       1.2100000000000009
     55 S         -12.6018    0.4661   -2.7122 S.3     1  LIG1      0.05000000000000071
     56 H         -18.1806   -1.7067    1.4209 H       1  LIG1          0.14
     57 H         -18.0639   -0.0550    2.0572 H       1  LIG1          0.14
     58 H         -18.1859   -0.3253    0.3105 H       1  LIG1          0.14
     59 H          -1.8630    3.2613   -1.1081 H       1  LIG1          0.14
     60 H          -2.1603    1.7814   -2.0387 H       1  LIG1       0.15000000000000002
     61 H          -0.4945    2.3906   -1.8612 H       1  LIG1       0.15000000000000002
     62 H          -0.5742    3.1019    1.1332 H       1  LIG1       0.15000000000000002
     63 H          -0.1307    1.5085    1.7732 H       1  LIG1          0.14
     64 H           0.7201    2.1452    0.3526 H       1  LIG1       0.15000000000000002
     65 H         -15.9436   -1.4473    0.3088 H       1  LIG1          0.14
     66 H         -15.7993   -1.1987    2.0528 H       1  LIG1          0.13
     67 H         -15.9590    1.3196    1.5992 H       1  LIG1          0.13
     68 H         -15.9371    0.9449   -0.1256 H       1  LIG1          0.14
     69 H         -13.6987    1.6234    0.6675 H       1  LIG1       0.16000000000000003
     70 H         -13.7168    0.3879    1.9136 H       1  LIG1       0.15000000000000002
     71 H         -13.6112   -1.4065    0.2067 H       1  LIG1       0.18999999999999995
     72 H         -12.2594   -0.2719    0.0936 H       1  LIG1       0.17000000000000004
     73 H          -7.3833    2.0925    0.8045 H       1  LIG1       0.10999999999999999
     74 H          -6.9495    3.4607   -0.2240 H       1  LIG1          0.12
     75 H          -6.3147    0.5330   -0.8690 H       1  LIG1       0.08999999999999997
     76 H          -6.0260    1.9043   -1.9328 H       1  LIG1       0.09999999999999998
     77 H         -11.7289    2.0057   -0.2221 H       1  LIG1          0.12
     78 H         -11.0148    2.8866   -1.5965 H       1  LIG1       0.09999999999999998
     79 H         -10.7020   -0.1425   -1.2945 H       1  LIG1       0.18000000000000005
     80 H         -10.2524    0.9081   -2.6488 H       1  LIG1       0.19999999999999996
     81 H           4.5942   -1.1522    0.8036 H       1  LIG1       0.19999999999999996
     82 H           4.4466   -2.8867    1.1611 H       1  LIG1       0.20999999999999996
     83 H          -1.5876   -0.4457   -1.0941 H       1  LIG1       0.18999999999999995
     84 H          -0.8686   -0.5859    0.5321 H       1  LIG1       0.17000000000000004
     85 H          12.9558    0.6749   -0.9696 H       1  LIG1       0.17000000000000004
     86 H           6.6424    1.4136   -0.0458 H       1  LIG1       0.20999999999999996
     87 H           6.7772   -3.2918    0.2918 H       1  LIG1       0.18000000000000005
     88 H           7.1511    0.0872    1.9829 H       1  LIG1          0.14
     89 H           6.0655   -1.7602    2.7015 H       1  LIG1       0.15000000000000002
     90 H          -2.5783    0.7257    1.5395 H       1  LIG1       0.10999999999999999
     91 H           9.0729   -1.5407    0.2546 H       1  LIG1       0.18999999999999995
     92 H          11.4928    4.8931   -1.3662 H       1  LIG1          0.37
     93 H           9.8044    4.8381   -1.1475 H       1  LIG1          0.37
     94 H           9.4170   -1.5621    2.8308 H       1  LIG1       0.44999999999999996
     95 H          -3.8679    2.8734    0.8200 H       1  LIG1          0.38
     96 H           6.0132   -0.5144   -1.2197 H       1  LIG1           0.5
     97 H           1.7984   -2.4967    0.7119 H       1  LIG1           0.48
@<TRIPOS>BOND
     1    44    53    2
     2    55    11    1
     3    55    18    1
     4    80    11    1
     5    35    17    2
     6    60     2    1
     7    53    43    1
     8    53    51    1
     9    53    47    1
    10    76     9    1
    11    36    18    2
    12    61     2    1
    13    11    79    1
    14    11    10    1
    15    46    54    2
    16    43    96    1
    17    78    10    1
    18    28    92    1
    19    28    23    1
    20    28    93    1
    21    18     7    1
    22    51    54    1
    23     2    59    1
    24     2    27    1
    25    31    23   ar
    26    31    14   ar
    27    23    19   ar
    28    83    13    1
    29    17     8    1
    30    17    29   am
    31    85    14    1
    32    48    54    1
    33    48    13    1
    34    54    45    1
    35    10    77    1
    36    10    29    1
    37    14    32   ar
    38     9    75    1
    39     9     8    1
    40     9    30    1
    41    47    12    1
    42    19    33   ar
    43    19    24   ar
    44    39    25    2
    45    33    15   ar
    46    32    24   ar
    47    24    34   ar
    48    13    27    1
    49    13    84    1
    50    15    34   ar
    51    15    86    1
    52    49    26    1
    53    49    16    1
    54     8    74    1
    55     8    73    1
    56    30    25   am
    57    25    22    1
    58    34    26    1
    59    68     5    1
    60    27    22    1
    61    27     3    1
    62     7    72    1
    63     7    71    1
    64     7     6    1
    65    91    26    1
    66    87    16    1
    67    65     4    1
    68    58     1    1
    69    64     3    1
    70    26    20    1
    71    12    16    1
    72    12    81    1
    73    12    82    1
    74    16    21    1
    75    42    52    2
    76    45    97    1
    77    69     6    1
    78    22    38    1
    79    22    90    1
    80    95    38    1
    81     3    62    1
    82     3    63    1
    83     5     6    1
    84     5     4    1
    85     5    67    1
    86     6    70    1
    87     4     1    1
    88     4    66    1
    89     1    56    1
    90     1    57    1
    91    20    88    1
    92    20    21    1
    93    20    37    1
    94    21    50    1
    95    21    89    1
    96    52    50    1
    97    52    41    1
    98    52    40    1
    99    37    94    1
