@<TRIPOS>MOLECULE
OEYIOHPDSNJKLS-UHFFFAOYSA-N	6044980	-328.6150300930089
 21 20 0 0 0
SMALL
MULLIKEN NwChem

@<TRIPOS>ATOM
      1 C           0.5544   -0.3356   -1.5424 C.3     1  LIG1      -0.33999999999999986
      2 C           0.3634    2.0098   -0.8378 C.3     1  LIG1      -0.33000000000000007
      3 C          -1.5292    0.4748   -0.5048 C.3     1  LIG1      -0.33999999999999986
      4 C           0.5498    0.2641    0.8905 C.3     1  LIG1      -0.16999999999999993
      5 C          -0.1048   -0.9017    1.6215 C.3     1  LIG1       -0.05999999999999961
      6 N          -0.0261    0.5928   -0.4934 N.4     1  LIG1       -0.3600000000000003
      7 O          -0.0785   -2.0452    0.7866 O.3     1  LIG1      -0.6400000000000006
      8 H           0.0957   -0.0951   -2.5030 H       1  LIG1       0.21999999999999997
      9 H           0.3433   -1.3611   -1.2492 H       1  LIG1       0.22999999999999998
     10 H           1.6315   -0.1690   -1.5927 H       1  LIG1       0.20999999999999996
     11 H           0.0513    2.2224   -1.8614 H       1  LIG1       0.21999999999999997
     12 H          -0.1313    2.6946   -0.1472 H       1  LIG1       0.21999999999999997
     13 H           1.4469    2.1086   -0.7519 H       1  LIG1       0.21999999999999997
     14 H          -1.7950   -0.5716   -0.3601 H       1  LIG1       0.21999999999999997
     15 H          -1.9409    1.0939    0.2940 H       1  LIG1       0.21999999999999997
     16 H          -1.8953    0.8256   -1.4709 H       1  LIG1       0.21999999999999997
     17 H           1.6134    0.0739    0.7316 H       1  LIG1       0.21999999999999997
     18 H           0.4391    1.1652    1.4990 H       1  LIG1       0.22999999999999998
     19 H           0.4796   -1.0413    2.5428 H       1  LIG1       0.18000000000000005
     20 H          -1.1290   -0.6401    1.9239 H       1  LIG1       0.17000000000000004
     21 H          -0.3548   -2.8237    1.2955 H       1  LIG1       0.43999999999999995
@<TRIPOS>BOND
     1     8     1    1
     2    11     2    1
     3    10     1    1
     4     1     9    1
     5     1     6    1
     6    16     3    1
     7     2    13    1
     8     2     6    1
     9     2    12    1
    10     3     6    1
    11     3    14    1
    12     3    15    1
    13     6     4    1
    14    17     4    1
    15     7    21    1
    16     7     5    1
    17     4    18    1
    18     4     5    1
    19     5    20    1
    20     5    19    1
