@<TRIPOS>MOLECULE
OFBHPPMPBOJXRT-DPXQIYNJSA-J	11085301	-1984.906797211509
 45 47 0 0 0
SMALL
MULLIKEN NwChem

@<TRIPOS>ATOM
      1 CB         -6.4520    1.5945   -1.3983 C.3     1  ASP1       -0.3799999999999999
      2 C           4.3568   -0.9255    1.8345 C.3     0  UNK0       -0.07000000000000028
      3 C          -2.6993   -2.2808   -1.0062 C.ar    0  UNK0       0.15000000000000036
      4 C          -0.1093    1.0015    0.1669 C.ar    0  UNK0       0.20999999999999996
      5 CA         -5.8431    0.4778   -0.5207 C.3     1  ASP1       -0.04999999999999982
      6 C           3.5063   -1.1201    0.5787 C.3     0  UNK0       0.1200000000000001
      7 CG         -6.1992    3.0955   -1.0220 C.2     1  ASP1       0.5300000000000002
      8 C          -2.0383    0.1652   -0.2095 C.ar    0  UNK0       0.15000000000000036
      9 C           3.7772   -0.1625   -0.6089 C.3     0  UNK0       0.16000000000000014
     10 C           2.4000   -0.2760   -1.3969 C.3     0  UNK0       0.07000000000000028
     11 C          -3.4290   -0.1421   -0.4267 C.ar    0  UNK0       0.5300000000000002
     12 C          -1.1115   -0.8577   -0.4544 C.ar    0  UNK0           0.5
     13 C           1.4345   -0.9411   -0.3735 C.3     0  UNK0       0.28000000000000025
     14 C          -6.6865    0.2024    0.8036 C.2     1  ASP1       0.5099999999999998
     15 N          -3.7045   -1.4246   -0.8329 N.ar    0  UNK0      -0.5700000000000003
     16 N          -1.3781   -2.1198   -0.8566 N.ar    0  UNK0      -0.5499999999999998
     17 N          -1.3835    1.3250    0.1837 N.ar    0  UNK0      -0.5800000000000001
     18 N          -4.4172    0.7362   -0.2961 N.pl3   1  ASP1      -0.6500000000000004
     19 N           0.1357   -0.3023   -0.2135 N.ar    0  UNK0      -0.5199999999999996
     20 OD2        -5.2313    3.3565   -0.2475 O.co2   1  ASP1      -0.6600000000000001
     21 OD1        -6.9693    3.9192   -1.5862 O.co2   1  ASP1      -0.6799999999999997
     22 O           4.8147   -0.5070   -1.4178 O.3     0  UNK0      -0.7799999999999994
     23 O           2.6558   -1.0840   -2.5205 O.3     0  UNK0      -0.7300000000000004
     24 O          -7.9097   -0.0155    0.5650 O.co2   1  ASP1      -0.6799999999999997
     25 OXT        -6.0761    0.1720    1.8944 O.co2   1  ASP1      -0.6699999999999999
     26 O           8.1010   -1.7674    1.3870 O.2     0  UNK0      -0.7100000000000009
     27 O           6.7703    0.1772    0.2535 O.3     0  UNK0      -0.7799999999999994
     28 O           7.1063    0.2246    2.7827 O.3     0  UNK0      -0.7300000000000004
     29 O           5.5946   -1.6016    1.6869 O.3     0  UNK0      -0.5999999999999996
     30 O           2.1051   -0.9345    0.8898 O.3     0  UNK0      -0.5500000000000007
     31 P           7.0363   -0.7161    1.5993 P.3     0  UNK0       1.0099999999999998
     32 HB1        -7.5319    1.4228   -1.4175 H       1  ASP1          0.13
     33 HB2        -6.0900    1.4816   -2.4358 H       1  ASP1          0.14
     34 H           4.5032    0.1425    2.0461 H       0  UNK0          0.14
     35 H           3.8153   -1.3594    2.6931 H       0  UNK0          0.14
     36 H          -3.0050   -3.2819   -1.3292 H       0  UNK0       0.15000000000000002
     37 H           0.7114    1.6535    0.4366 H       0  UNK0       0.19999999999999996
     38 HA         -5.9060   -0.4632   -1.0751 H       1  ASP1          0.14
     39 H           3.6694   -2.1491    0.2163 H       0  UNK0          0.12
     40 H           3.8447    0.8641   -0.1775 H       0  UNK0       0.06999999999999995
     41 H           2.0000    0.7064   -1.7023 H       0  UNK0          0.12
     42 H           1.2287   -1.9666   -0.7059 H       0  UNK0       0.16000000000000003
     43 H          -4.2452    1.7149   -0.0323 H       1  ASP1          0.35
     44 H           6.1120   -0.2245   -0.4043 H       0  UNK0       0.43999999999999995
     45 H           3.6747   -1.0948   -2.4425 H       0  UNK0           0.39
@<TRIPOS>BOND
     1    23    45    1
     2    23    10    1
     3    33     1    1
     4    41    10    1
     5    21     7   ar
     6    22     9    1
     7    32     1    1
     8     1     7    1
     9     1     5    1
    10    10     9    1
    11    10    13    1
    12    36     3    1
    13    38     5    1
    14     7    20   ar
    15     3    16   ar
    16     3    15   ar
    17    16    12   ar
    18    15    11   ar
    19    42    13    1
    20     9    40    1
    21     9     6    1
    22     5    18    1
    23     5    14    1
    24    12    19   ar
    25    12     8   ar
    26    11    18    1
    27    11     8   ar
    28    44    27    1
    29    13    19    1
    30    13    30    1
    31    18    43    1
    32    19     4   ar
    33     8    17   ar
    34     4    17   ar
    35     4    37    1
    36    39     6    1
    37    27    31    1
    38    24    14   ar
    39     6    30    1
    40     6     2    1
    41    14    25   ar
    42    26    31    2
    43    31    29    1
    44    31    28    1
    45    29     2    1
    46     2    34    1
    47     2    35    1
