@<TRIPOS>MOLECULE
OFOBLEOULBTSOW-UHFFFAOYSA-L	6044982	-416.6782551370714
 9 8 0 0 0
SMALL
MULLIKEN NwChem

@<TRIPOS>ATOM
      1 C           0.3695   -0.6307   -0.3192 C.3     1  LIG1       -0.40000000000000036
      2 C           0.0092   -0.5946    1.2134 C.2     1  LIG1       0.4900000000000002
      3 C           0.1240    0.6681   -1.1744 C.2     1  LIG1       0.4900000000000002
      4 O          -1.1999   -0.3645    1.4986 O.co2   1  LIG1      -0.6999999999999993
      5 O           0.9487   -0.8608    2.0223 O.co2   1  LIG1      -0.6899999999999995
      6 O          -0.6430    0.5501   -2.1770 O.co2   1  LIG1      -0.6999999999999993
      7 O           0.7637    1.6989   -0.8212 O.co2   1  LIG1      -0.6899999999999995
      8 H          -0.2124   -1.4464   -0.7779 H       1  LIG1       0.09999999999999998
      9 H           1.4379   -0.8869   -0.4037 H       1  LIG1       0.10999999999999999
@<TRIPOS>BOND
     1     6     3   ar
     2     3     7   ar
     3     3     1    1
     4     8     1    1
     5     9     1    1
     6     1     2    1
     7     2     4   ar
     8     2     5   ar
