@<TRIPOS>MOLECULE
OGQJUYXFIOFTMA-PBJLWWPKSA-N	6044983	-1208.6156521926434
 78 81 0 0 0
SMALL
MULLIKEN NwChem

@<TRIPOS>ATOM
      1 C          -0.4050    6.7479    3.6491 C.3     1  LIG1      -0.45999999999999996
      2 C          -1.5427    4.5941    4.3411 C.3     1  LIG1      -0.45999999999999996
      3 C          -1.2400    3.7123   -1.9290 C.3     1  LIG1      -0.4800000000000004
      4 C           2.9167   -4.6812    0.7345 C.3     1  LIG1      -0.5099999999999998
      5 C           2.1739   -5.9931   -1.2098 C.3     1  LIG1      -0.4800000000000004
      6 C          -2.1670    0.8404   -0.2393 C.3     1  LIG1      -0.4800000000000004
      7 C          -1.7716   -3.8952   -1.2511 C.3     1  LIG1      -0.4800000000000004
      8 C          -1.2523    5.8946    0.6464 C.3     1  LIG1      -0.28000000000000025
      9 C          -1.8639    5.4636    1.9938 C.3     1  LIG1      -0.2599999999999998
     10 C          -0.2434    4.8876    0.0647 C.3     1  LIG1      -0.28000000000000025
     11 C           0.5830   -2.3050    1.3860 C.3     1  LIG1      -0.34999999999999964
     12 C           0.3055    2.1671    1.3833 C.3     1  LIG1      -0.33999999999999986
     13 C           0.5466    0.6892    1.5264 C.2     1  LIG1      -0.2400000000000002
     14 C           0.2023   -3.7760    1.2241 C.3     1  LIG1      -0.29000000000000004
     15 C          -0.6648   -1.0434   -2.1047 C.3     1  LIG1      -0.3600000000000003
     16 C           1.7879   -3.4255   -2.7854 C.3     1  LIG1      -0.29000000000000004
     17 C          -0.2975    0.4360   -1.9161 C.3     1  LIG1      -0.29000000000000004
     18 C           0.3054   -3.8109   -2.6450 C.3     1  LIG1      -0.2999999999999998
     19 C          -0.8859    5.3648    3.1844 C.3     1  LIG1      -0.05999999999999961
     20 C          -0.9060    3.5736   -0.4332 C.3     1  LIG1      -0.07000000000000028
     21 C           0.1101   -1.4422    0.2394 C.2     1  LIG1      0.08000000000000007
     22 C          -0.0515    2.3284   -0.1224 C.3     1  LIG1      -0.11000000000000032
     23 C           0.0613   -0.0003    0.4808 C.2     1  LIG1      0.11000000000000032
     24 C          -0.2243   -1.9592   -0.9705 C.2     1  LIG1      0.07000000000000028
     25 C           0.4911   -4.3401   -0.1783 C.3     1  LIG1      -0.1200000000000001
     26 C           2.5460   -3.4903   -1.4526 C.3     1  LIG1       0.1299999999999999
     27 C           2.0197   -4.6152   -0.5204 C.3     1  LIG1      0.11000000000000032
     28 C          -0.6440    0.9250   -0.5032 C.3     1  LIG1      0.040000000000000036
     29 C          -0.2764   -3.4752   -1.2507 C.3     1  LIG1      0.03000000000000025
     30 O           3.9288   -3.6461   -1.7893 O.3     1  LIG1      -0.6899999999999995
     31 H          -1.2523    7.3620    3.9798 H       1  LIG1          0.14
     32 H           0.1105    7.2926    2.8501 H       1  LIG1       0.15000000000000002
     33 H           0.2898    6.6585    4.4933 H       1  LIG1          0.14
     34 H          -2.4824    5.0752    4.6462 H       1  LIG1          0.14
     35 H          -1.7761    3.5628    4.0428 H       1  LIG1       0.15000000000000002
     36 H          -0.8913    4.5490    5.2219 H       1  LIG1          0.14
     37 H          -0.3220    3.6968   -2.5312 H       1  LIG1          0.14
     38 H          -1.8887    2.9109   -2.2910 H       1  LIG1       0.16000000000000003
     39 H          -1.7514    4.6619   -2.1291 H       1  LIG1          0.14
     40 H           2.5475   -5.4192    1.4541 H       1  LIG1       0.15000000000000002
     41 H           3.9251   -4.9991    0.4474 H       1  LIG1       0.15000000000000002
     42 H           3.0016   -3.7202    1.2535 H       1  LIG1       0.15000000000000002
     43 H           1.4529   -6.1497   -2.0144 H       1  LIG1       0.15000000000000002
     44 H           3.1782   -6.0945   -1.6281 H       1  LIG1          0.14
     45 H           2.0196   -6.7986   -0.4817 H       1  LIG1          0.14
     46 H          -2.4078    1.2219    0.7592 H       1  LIG1       0.15000000000000002
     47 H          -2.7405    1.4171   -0.9730 H       1  LIG1       0.15000000000000002
     48 H          -2.5138   -0.1971   -0.2774 H       1  LIG1       0.15000000000000002
     49 H          -2.2478   -3.6980   -0.2852 H       1  LIG1       0.15000000000000002
     50 H          -2.3368   -3.3503   -2.0162 H       1  LIG1       0.15000000000000002
     51 H          -1.8669   -4.9670   -1.4683 H       1  LIG1       0.15000000000000002
     52 H          -2.0689    6.0437   -0.0760 H       1  LIG1          0.13
     53 H          -0.7696    6.8739    0.7541 H       1  LIG1          0.13
     54 H          -2.3553    4.4887    1.8629 H       1  LIG1          0.14
     55 H          -2.6673    6.1660    2.2685 H       1  LIG1          0.12
     56 H           0.2863    5.3570   -0.7750 H       1  LIG1          0.13
     57 H           0.5245    4.6830    0.8183 H       1  LIG1          0.14
     58 H           0.1623   -1.9240    2.3258 H       1  LIG1          0.14
     59 H           1.6707   -2.1857    1.4844 H       1  LIG1       0.16000000000000003
     60 H           1.1730    2.7678    1.6804 H       1  LIG1       0.15000000000000002
     61 H          -0.5272    2.4997    2.0252 H       1  LIG1       0.16000000000000003
     62 H           1.0556    0.2586    2.3844 H       1  LIG1          0.13
     63 H          -0.8744   -3.8689    1.4111 H       1  LIG1          0.14
     64 H           0.6889   -4.3793    1.9973 H       1  LIG1          0.14
     65 H          -0.2311   -1.3777   -3.0530 H       1  LIG1       0.16000000000000003
     66 H          -1.7523   -1.1396   -2.2407 H       1  LIG1       0.16000000000000003
     67 H           1.8909   -2.4114   -3.1903 H       1  LIG1          0.14
     68 H           2.2882   -4.0933   -3.4962 H       1  LIG1          0.14
     69 H          -0.7946    1.0346   -2.6864 H       1  LIG1          0.14
     70 H           0.7844    0.5539   -2.0676 H       1  LIG1          0.13
     71 H           0.1772   -4.8876   -2.7975 H       1  LIG1       0.15000000000000002
     72 H          -0.2857   -3.3395   -3.4348 H       1  LIG1          0.14
     73 H          -0.0039    4.7900    2.8702 H       1  LIG1          0.13
     74 H          -1.8555    3.4548    0.1069 H       1  LIG1          0.13
     75 H           0.8997    2.4251   -0.6688 H       1  LIG1          0.12
     76 H           0.0176   -5.3312   -0.2090 H       1  LIG1          0.13
     77 H           2.4081   -2.5366   -0.9208 H       1  LIG1          0.13
     78 H           4.4480   -3.4472   -0.9959 H       1  LIG1       0.42000000000000004
@<TRIPOS>BOND
     1    68    16    1
     2    72    18    1
     3    67    16    1
     4    65    15    1
     5    71    18    1
     6    16    18    1
     7    16    26    1
     8    69    17    1
     9    18    29    1
    10    37     3    1
    11    38     3    1
    12    66    15    1
    13    39     3    1
    14    15    17    1
    15    15    24    1
    16    70    17    1
    17    50     7    1
    18    43     5    1
    19     3    20    1
    20    17    28    1
    21    30    26    1
    22    30    78    1
    23    44     5    1
    24    51     7    1
    25    26    77    1
    26    26    27    1
    27     7    29    1
    28     7    49    1
    29    29    24    1
    30    29    25    1
    31     5    27    1
    32     5    45    1
    33    47     6    1
    34    24    21    2
    35    56    10    1
    36    75    22    1
    37    27    25    1
    38    27     4    1
    39    28     6    1
    40    28    22    1
    41    28    23    1
    42    20    22    1
    43    20    10    1
    44    20    74    1
    45    48     6    1
    46     6    46    1
    47    76    25    1
    48    25    14    1
    49    22    12    1
    50    52     8    1
    51    10     8    1
    52    10    57    1
    53    21    23    1
    54    21    11    1
    55    41     4    1
    56    23    13    2
    57     8    53    1
    58     8     9    1
    59     4    42    1
    60     4    40    1
    61    14    11    1
    62    14    63    1
    63    14    64    1
    64    12    13    1
    65    12    60    1
    66    12    61    1
    67    11    59    1
    68    11    58    1
    69    13    62    1
    70    54     9    1
    71     9    55    1
    72     9    19    1
    73    32     1    1
    74    73    19    1
    75    19     1    1
    76    19     2    1
    77     1    31    1
    78     1    33    1
    79    35     2    1
    80     2    34    1
    81     2    36    1
