@<TRIPOS>MOLECULE
OHBHBMXNJCUMCR-DKCCAHEHSA-N	6044984	-1978.2706591100684
 113 113 0 0 0
SMALL
MULLIKEN NwChem

@<TRIPOS>ATOM
      1 C          -2.6125   -2.4678   -4.2466 C.3     1  LIG1            -0.54
      2 C          -4.0082   -0.5412   -5.1599 C.3     1  LIG1        -0.54
      3 C          -4.1136   -2.4337    1.1159 C.3     1  LIG1        -0.54
      4 C          -5.8603    2.5129   -0.7106 C.3     1  LIG1      -0.5300000000000002
      5 C          -0.3678    0.5050   -3.5183 C.3     1  LIG1      -0.5499999999999998
      6 C          -0.7693   -3.5966    1.1735 C.3     1  LIG1        -0.54
      7 C          -2.5073    1.4087    3.1429 C.3     1  LIG1      -0.5499999999999998
      8 C           1.1932    3.6839   -0.7121 C.3     1  LIG1        -0.54
      9 C           5.8015    3.3660    0.7423 C.3     1  LIG1      -0.5999999999999996
     10 C           5.4747   -3.1197    0.8037 C.3     1  LIG1       -0.23000000000000043
     11 C          -5.0624   -3.3353   -2.6122 C.3     1  LIG1      -0.3200000000000003
     12 C          -6.4330   -0.5040    0.6183 C.3     1  LIG1      -0.3099999999999996
     13 C          -3.0893    1.7498   -1.9833 C.3     1  LIG1      -0.3200000000000003
     14 C           0.1461   -1.6343   -1.3035 C.3     1  LIG1      -0.33000000000000007
     15 C          -0.8633   -1.3876    3.3658 C.3     1  LIG1      -0.3200000000000003
     16 C          -0.2828    3.3152    2.2388 C.3     1  LIG1      -0.3200000000000003
     17 C          -4.9916   -2.1224   -3.5131 C.2     1  LIG1      -0.1900000000000004
     18 C          -4.3007   -3.2366   -1.2743 C.3     1  LIG1      -0.33000000000000007
     19 C          -5.8940   -1.5010   -0.3832 C.2     1  LIG1      -0.1900000000000004
     20 C          -5.4290    0.6315    0.9597 C.3     1  LIG1      -0.33999999999999986
     21 C          -3.7704    1.0911   -0.8154 C.2     1  LIG1      -0.1900000000000004
     22 C          -1.5576    1.8913   -1.7498 C.3     1  LIG1      -0.34999999999999964
     23 C          -0.5205   -0.2910   -1.1254 C.2     1  LIG1      -0.17999999999999972
     24 C           0.9227   -2.1098   -0.0494 C.3     1  LIG1      -0.34999999999999964
     25 C           0.0007   -1.3983    2.1277 C.2     1  LIG1      -0.17999999999999972
     26 C          -0.6869   -0.0812    4.1740 C.3     1  LIG1      -0.34999999999999964
     27 C          -0.0796    2.0058    2.9654 C.2     1  LIG1      -0.1900000000000004
     28 C           1.0570    3.9775    1.8405 C.3     1  LIG1      -0.34999999999999964
     29 C           2.7551    2.4693    0.7929 C.2     1  LIG1      -0.17999999999999972
     30 C           3.4810    1.8274   -0.3761 C.3     1  LIG1      -0.4299999999999997
     31 C          -3.9381   -1.7445   -4.2512 C.2     1  LIG1      0.16999999999999993
     32 C          -4.8650   -2.3378   -0.1923 C.2     1  LIG1      0.16999999999999993
     33 C          -4.9376    1.4174   -0.2377 C.2     1  LIG1      0.16999999999999993
     34 C          -0.7765    0.6302   -2.0695 C.2     1  LIG1      0.16000000000000014
     35 C           0.0400   -2.3248    1.1595 C.2     1  LIG1      0.16999999999999993
     36 C          -1.0361    1.1681    3.3908 C.2     1  LIG1      0.17999999999999972
     37 C           1.7292    3.3206    0.6558 C.2     1  LIG1      0.17999999999999972
     38 C           5.8477    1.8618    0.5638 C.ar    1  LIG1       0.08999999999999986
     39 C           4.7735    1.1283    0.0045 C.ar    1  LIG1       0.07000000000000028
     40 C           7.0243    1.2089    0.9537 C.ar    1  LIG1       0.20999999999999996
     41 C           4.9255   -0.2535   -0.1866 C.ar    1  LIG1       0.20000000000000018
     42 C           7.1497   -0.1773    0.7935 C.ar    1  LIG1       0.2699999999999996
     43 C           6.1004   -0.8987    0.2232 C.ar    1  LIG1       0.2599999999999998
     44 O           8.1044    1.8574    1.4995 O.3     1  LIG1      -0.6899999999999995
     45 O           3.9788   -1.0681   -0.7671 O.3     1  LIG1      -0.6899999999999995
     46 O           8.2926   -0.8079    1.1754 O.3     1  LIG1      -0.6899999999999995
     47 O           6.3254   -2.2515    0.0394 O.3     1  LIG1      -0.5700000000000003
     48 H          -2.1881   -2.5231   -5.2581 H       1  LIG1       0.15000000000000002
     49 H          -2.6857   -3.4882   -3.8561 H       1  LIG1       0.16000000000000003
     50 H          -1.8844   -1.9290   -3.6242 H       1  LIG1       0.18000000000000005
     51 H          -4.9604   -0.0086   -5.0700 H       1  LIG1       0.16000000000000003
     52 H          -3.2023    0.1722   -4.9459 H       1  LIG1       0.17000000000000004
     53 H          -3.8821   -0.8403   -6.2105 H       1  LIG1       0.16000000000000003
     54 H          -4.6799   -2.0360    1.9623 H       1  LIG1       0.16000000000000003
     55 H          -3.8550   -3.4750    1.3440 H       1  LIG1       0.16000000000000003
     56 H          -3.1630   -1.8829    1.0601 H       1  LIG1       0.18000000000000005
     57 H          -5.9928    3.2768    0.0705 H       1  LIG1       0.16000000000000003
     58 H          -5.5121    3.0119   -1.6178 H       1  LIG1       0.16000000000000003
     59 H          -6.8619    2.1112   -0.9213 H       1  LIG1       0.16000000000000003
     60 H           0.3363    1.3055   -3.7866 H       1  LIG1       0.16000000000000003
     61 H           0.0996   -0.4519   -3.7594 H       1  LIG1       0.16000000000000003
     62 H          -1.2338    0.6246   -4.1813 H       1  LIG1       0.17000000000000004
     63 H          -0.1047   -4.4718    1.1735 H       1  LIG1       0.16000000000000003
     64 H          -1.4233   -3.6701    2.0454 H       1  LIG1       0.17000000000000004
     65 H          -1.4000   -3.6829    0.2777 H       1  LIG1       0.17000000000000004
     66 H          -2.9558    1.9839    3.9658 H       1  LIG1       0.16000000000000003
     67 H          -2.6989    1.9539    2.2124 H       1  LIG1       0.16000000000000003
     68 H          -3.0571    0.4625    3.0888 H       1  LIG1       0.17000000000000004
     69 H           1.8657    4.3880   -1.2237 H       1  LIG1       0.17000000000000004
     70 H           1.0896    2.8052   -1.3576 H       1  LIG1       0.18000000000000005
     71 H           0.2106    4.1617   -0.6463 H       1  LIG1       0.16000000000000003
     72 H           5.9075    3.6532    1.7981 H       1  LIG1       0.18000000000000005
     73 H           6.6122    3.8561    0.1849 H       1  LIG1       0.18000000000000005
     74 H           4.8635    3.8049    0.4025 H       1  LIG1       0.18999999999999995
     75 H           5.5524   -2.8979    1.8763 H       1  LIG1       0.16000000000000003
     76 H           4.4333   -3.0244    0.4844 H       1  LIG1       0.18000000000000005
     77 H           5.8300   -4.1348    0.6121 H       1  LIG1       0.18000000000000005
     78 H          -6.1121   -3.5713   -2.4019 H       1  LIG1          0.14
     79 H          -4.6622   -4.2071   -3.1479 H       1  LIG1       0.15000000000000002
     80 H          -7.3586   -0.0650    0.2269 H       1  LIG1          0.14
     81 H          -6.7087   -1.0021    1.5588 H       1  LIG1       0.15000000000000002
     82 H          -3.2605    1.1621   -2.8967 H       1  LIG1       0.16000000000000003
     83 H          -3.5131    2.7422   -2.1721 H       1  LIG1       0.15000000000000002
     84 H          -0.6154   -2.3907   -1.5504 H       1  LIG1       0.16000000000000003
     85 H           0.8361   -1.6234   -2.1562 H       1  LIG1       0.16000000000000003
     86 H          -1.9211   -1.5110    3.0957 H       1  LIG1       0.17000000000000004
     87 H          -0.6238   -2.2395    4.0183 H       1  LIG1       0.15000000000000002
     88 H          -0.9077    3.1787    1.3434 H       1  LIG1       0.17000000000000004
     89 H          -0.8426    4.0104    2.8821 H       1  LIG1       0.15000000000000002
     90 H          -5.8919   -1.5113   -3.5740 H       1  LIG1          0.13
     91 H          -4.2075   -4.2522   -0.8580 H       1  LIG1          0.14
     92 H          -3.2665   -2.9139   -1.4770 H       1  LIG1       0.17000000000000004
     93 H          -6.3583   -1.4721   -1.3639 H       1  LIG1          0.13
     94 H          -5.9060    1.3106    1.6823 H       1  LIG1          0.13
     95 H          -4.5710    0.1877    1.4701 H       1  LIG1       0.16000000000000003
     96 H          -3.2223    0.2477   -0.3960 H       1  LIG1          0.13
     97 H          -1.1824    2.7129   -2.3736 H       1  LIG1          0.14
     98 H          -1.3925    2.1890   -0.7083 H       1  LIG1       0.17000000000000004
     99 H          -0.8541   -0.0800   -0.1096 H       1  LIG1          0.13
    100 H           1.4479   -3.0409   -0.3042 H       1  LIG1          0.14
    101 H           1.6978   -1.3761    0.1915 H       1  LIG1          0.14
    102 H           0.6451   -0.5280    2.0075 H       1  LIG1          0.12
    103 H          -1.3170   -0.1375    5.0734 H       1  LIG1          0.14
    104 H           0.3521   -0.0192    4.5199 H       1  LIG1          0.14
    105 H           0.9563    1.7568    3.1974 H       1  LIG1          0.13
    106 H           0.8738    5.0339    1.6014 H       1  LIG1          0.14
    107 H           1.7260    3.9672    2.7103 H       1  LIG1       0.15000000000000002
    108 H           3.1288    2.2252    1.7861 H       1  LIG1          0.14
    109 H           2.7801    1.1381   -0.8733 H       1  LIG1       0.16000000000000003
    110 H           3.6856    2.5874   -1.1439 H       1  LIG1       0.18000000000000005
    111 H           7.8841    2.7925    1.6145 H       1  LIG1       0.44999999999999996
    112 H           3.2410   -0.5289   -1.0846 H       1  LIG1       0.44999999999999996
    113 H           8.1741   -1.7372    0.9026 H       1  LIG1       0.43999999999999995
@<TRIPOS>BOND
     1    53     2    1
     2    48     1    1
     3     2    51    1
     4     2    52    1
     5     2    31    1
     6    31     1    1
     7    31    17    2
     8     1    49    1
     9     1    50    1
    10    62     5    1
    11    60     5    1
    12    61     5    1
    13    90    17    1
    14     5    34    1
    15    17    11    1
    16    79    11    1
    17    82    13    1
    18    11    78    1
    19    11    18    1
    20    97    22    1
    21    83    13    1
    22    85    14    1
    23    34    22    1
    24    34    23    2
    25    13    22    1
    26    13    21    1
    27    22    98    1
    28    58     4    1
    29    84    14    1
    30    92    18    1
    31    93    19    1
    32    70     8    1
    33    14    23    1
    34    14    24    1
    35    18    91    1
    36    18    32    1
    37    69     8    1
    38   110    30    1
    39    23    99    1
    40   112    45    1
    41    59     4    1
    42   109    30    1
    43    21    96    1
    44    21    33    2
    45    45    41    1
    46     8    71    1
    47     8    37    1
    48     4    33    1
    49     4    57    1
    50    19    32    2
    51    19    12    1
    52    30    39    1
    53    30    29    1
    54   100    24    1
    55    33    20    1
    56    32     3    1
    57    41    39   ar
    58    41    43   ar
    59    24   101    1
    60    24    35    1
    61    39    38   ar
    62    47    43    1
    63    47    10    1
    64    73     9    1
    65    43    42   ar
    66    80    12    1
    67    65     6    1
    68    74     9    1
    69    76    10    1
    70    38     9    1
    71    38    40   ar
    72    77    10    1
    73    12    20    1
    74    12    81    1
    75    37    29    2
    76    37    28    1
    77     9    72    1
    78    29   108    1
    79    42    40   ar
    80    42    46    1
    81    10    75    1
    82   113    46    1
    83    40    44    1
    84    20    95    1
    85    20    94    1
    86    56     3    1
    87     3    55    1
    88     3    54    1
    89    35     6    1
    90    35    25    2
    91    63     6    1
    92     6    64    1
    93    88    16    1
    94    44   111    1
    95   106    28    1
    96    28    16    1
    97    28   107    1
    98   102    25    1
    99    25    15    1
   100    67     7    1
   101    16    89    1
   102    16    27    1
   103    27   105    1
   104    27    36    2
   105    68     7    1
   106    86    15    1
   107     7    36    1
   108     7    66    1
   109    15    87    1
   110    15    26    1
   111    36    26    1
   112    26   104    1
   113    26   103    1
