@<TRIPOS>MOLECULE
OILXMJHPFNGGTO-ZAUYPBDWSA-N	6044985	-1169.3186542504175
 75 78 0 0 0
SMALL
MULLIKEN NwChem

@<TRIPOS>ATOM
      1 C          -5.4472   -4.0091    0.8243 C.3     1  LIG1      -0.45999999999999996
      2 C          -3.7521   -2.3351    0.0181 C.3     1  LIG1      -0.46999999999999975
      3 C          -3.1925   -5.9943    1.3450 C.3     1  LIG1      -0.46999999999999975
      4 C           1.1696   -4.3163   -0.5967 C.3     1  LIG1      -0.46999999999999975
      5 C           2.5030    4.0397    0.4370 C.3     1  LIG1      -0.4900000000000002
      6 C           1.6158   -1.8145    3.0413 C.3     1  LIG1      -0.4900000000000002
      7 C          -1.5650   -4.2927    0.5466 C.2     1  LIG1      -0.11000000000000032
      8 C          -0.5431   -3.7159    1.1856 C.2     1  LIG1      -0.13999999999999968
      9 C          -0.9443    3.6295   -0.4233 C.2     1  LIG1      -0.23000000000000043
     10 C          -1.2536    2.2542    0.0982 C.3     1  LIG1      -0.3099999999999996
     11 C           0.2519   -1.2956   -0.5096 C.3     1  LIG1      -0.3200000000000003
     12 C          -0.0883   -0.4166    1.7513 C.3     1  LIG1      -0.2999999999999998
     13 C           2.4194    4.2295   -2.6975 C.3     1  LIG1      -0.29000000000000004
     14 C           2.3858    0.8887    0.2951 C.3     1  LIG1      -0.2999999999999998
     15 C           2.2209    2.9594   -1.8525 C.3     1  LIG1      -0.29000000000000004
     16 C           2.4238   -0.0322    1.5271 C.3     1  LIG1      -0.28000000000000025
     17 C           0.5070    5.3426   -1.4867 C.3     1  LIG1      -0.3700000000000001
     18 C          -4.0371   -3.8284    0.2406 C.3     1  LIG1      -0.07000000000000028
     19 C          -2.9447   -4.4869    1.1290 C.3     1  LIG1      -0.11000000000000032
     20 C           0.8667   -3.5131    0.6779 C.3     1  LIG1      -0.1299999999999999
     21 C           0.2883    4.0535   -0.7285 C.2     1  LIG1      0.17999999999999972
     22 C           1.1276    5.0257   -2.8615 C.3     1  LIG1       0.16000000000000014
     23 C          -0.1189    1.2731   -0.2328 C.3     1  LIG1      -0.09999999999999964
     24 C           1.2396   -2.0097    0.4558 C.3     1  LIG1      -0.08999999999999986
     25 C          -0.4555   -0.1507    0.2757 C.3     1  LIG1      -0.09999999999999964
     26 C           1.2066    1.8854    0.2750 C.3     1  LIG1      -0.08999999999999986
     27 C           1.5491    3.2227   -0.4730 C.3     1  LIG1      0.03000000000000025
     28 C           1.3029   -1.0885    1.7231 C.3     1  LIG1      0.11000000000000032
     29 O           1.4548    6.2089   -3.5875 O.3     1  LIG1      -0.6899999999999995
     30 H          -5.5028   -3.5902    1.8382 H       1  LIG1          0.14
     31 H          -5.7467   -5.0601    0.8780 H       1  LIG1       0.15000000000000002
     32 H          -6.1898   -3.4867    0.2097 H       1  LIG1          0.14
     33 H          -3.7315   -1.7977    0.9757 H       1  LIG1          0.14
     34 H          -2.7861   -2.1757   -0.4689 H       1  LIG1       0.17000000000000004
     35 H          -4.5287   -1.8766   -0.6054 H       1  LIG1          0.14
     36 H          -3.2428   -6.5216    0.3831 H       1  LIG1          0.14
     37 H          -2.3753   -6.4358    1.9251 H       1  LIG1          0.14
     38 H          -4.1271   -6.1844    1.8821 H       1  LIG1       0.15000000000000002
     39 H           0.5802   -3.9642   -1.4512 H       1  LIG1       0.15000000000000002
     40 H           2.2276   -4.2213   -0.8659 H       1  LIG1          0.14
     41 H           0.9471   -5.3792   -0.4529 H       1  LIG1          0.14
     42 H           1.9977    4.3098    1.3712 H       1  LIG1       0.15000000000000002
     43 H           3.3968    3.4604    0.6913 H       1  LIG1       0.15000000000000002
     44 H           2.8450    4.9645   -0.0336 H       1  LIG1       0.15000000000000002
     45 H           0.8525   -2.5501    3.3088 H       1  LIG1       0.15000000000000002
     46 H           2.5808   -2.3343    2.9939 H       1  LIG1          0.14
     47 H           1.6733   -1.0926    3.8650 H       1  LIG1          0.14
     48 H          -1.4272   -4.6929   -0.4594 H       1  LIG1          0.13
     49 H          -0.7353   -3.3387    2.1899 H       1  LIG1          0.13
     50 H          -1.7909    4.2865   -0.6251 H       1  LIG1          0.12
     51 H          -1.4324    2.2670    1.1861 H       1  LIG1          0.14
     52 H          -2.1929    1.9018   -0.3507 H       1  LIG1          0.14
     53 H          -0.4941   -2.0075   -0.8764 H       1  LIG1       0.15000000000000002
     54 H           0.7639   -0.9066   -1.3959 H       1  LIG1          0.14
     55 H          -0.0995    0.4878    2.3716 H       1  LIG1          0.13
     56 H          -0.8193   -1.1054    2.1894 H       1  LIG1          0.13
     57 H           3.1646    4.8905   -2.2380 H       1  LIG1          0.14
     58 H           2.8077    3.9674   -3.6886 H       1  LIG1          0.14
     59 H           3.3303    1.4441    0.3056 H       1  LIG1          0.14
     60 H           2.4070    0.3037   -0.6311 H       1  LIG1          0.14
     61 H           1.5963    2.2526   -2.4144 H       1  LIG1          0.14
     62 H           3.1927    2.4735   -1.7103 H       1  LIG1          0.14
     63 H           2.4438    0.6098    2.4203 H       1  LIG1          0.13
     64 H           3.3835   -0.5689    1.5179 H       1  LIG1          0.13
     65 H          -0.4453    5.8729   -1.6223 H       1  LIG1       0.15000000000000002
     66 H           1.1873    6.0285   -0.9659 H       1  LIG1       0.15000000000000002
     67 H          -4.0069   -4.3307   -0.7399 H       1  LIG1          0.12
     68 H          -2.9764   -3.9897    2.1113 H       1  LIG1          0.12
     69 H           1.5428   -3.8920    1.4581 H       1  LIG1          0.14
     70 H           0.4027    4.4136   -3.4274 H       1  LIG1          0.12
     71 H          -0.0655    1.2123   -1.3299 H       1  LIG1          0.12
     72 H           2.2443   -2.0351    0.0129 H       1  LIG1          0.12
     73 H          -1.5388   -0.2628    0.1504 H       1  LIG1          0.12
     74 H           1.0283    2.1810    1.3202 H       1  LIG1          0.12
     75 H           0.6372    6.7182   -3.7013 H       1  LIG1       0.42000000000000004
@<TRIPOS>BOND
     1    75    29    1
     2    58    13    1
     3    29    22    1
     4    70    22    1
     5    22    13    1
     6    22    17    1
     7    13    57    1
     8    13    15    1
     9    61    15    1
    10    15    62    1
    11    15    27    1
    12    65    17    1
    13    17    66    1
    14    17    21    1
    15    39     4    1
    16    54    11    1
    17    71    23    1
    18    53    11    1
    19    40     4    1
    20    67    18    1
    21    21    27    1
    22    21     9    2
    23    60    14    1
    24    50     9    1
    25    35     2    1
    26     4    41    1
    27     4    20    1
    28    11    25    1
    29    11    24    1
    30    27    26    1
    31    27     5    1
    32    34     2    1
    33    48     7    1
    34     9    10    1
    35    52    10    1
    36    23    10    1
    37    23    26    1
    38    23    25    1
    39    44     5    1
    40    72    24    1
    41     2    18    1
    42     2    33    1
    43    10    51    1
    44    73    25    1
    45    32     1    1
    46    18     1    1
    47    18    19    1
    48    26    14    1
    49    26    74    1
    50    25    12    1
    51    14    59    1
    52    14    16    1
    53    36     3    1
    54     5    43    1
    55     5    42    1
    56    24    20    1
    57    24    28    1
    58     7    19    1
    59     7     8    2
    60    20     8    1
    61    20    69    1
    62     1    31    1
    63     1    30    1
    64    19     3    1
    65    19    68    1
    66     8    49    1
    67     3    38    1
    68     3    37    1
    69    64    16    1
    70    16    28    1
    71    16    63    1
    72    28    12    1
    73    28     6    1
    74    12    56    1
    75    12    55    1
    76    46     6    1
    77     6    45    1
    78     6    47    1
