@<TRIPOS>MOLECULE
OINNEUNVOZHBOX-QIRCYJPOSA-K	11085300	-1991.4032507398829
 62 61 0 0 0
SMALL
MULLIKEN NwChem

@<TRIPOS>ATOM
      1 C         -11.1677   -1.4149    0.6262 C.3     1  LIG1      -0.5300000000000002
      2 C         -12.0476    0.5686    1.9194 C.3     1  LIG1      -0.5199999999999996
      3 C          -6.9956   -1.7792   -1.6022 C.3     1  LIG1      -0.5300000000000002
      4 C          -2.8231    0.5510    0.3075 C.3     1  LIG1      -0.5300000000000002
      5 C           3.0255   -1.4611   -0.6476 C.3     1  LIG1      -0.5800000000000001
      6 C          -9.1232    0.5072   -0.7017 C.3     1  LIG1      -0.3099999999999996
      7 C          -4.6409    0.1087   -2.3185 C.3     1  LIG1      -0.2999999999999998
      8 C           0.0258   -0.4128   -0.6829 C.3     1  LIG1      -0.3099999999999996
      9 C         -10.2109    0.9076    0.2422 C.2     1  LIG1      -0.1900000000000004
     10 C          -7.8077    0.0073    0.0140 C.3     1  LIG1      -0.33000000000000007
     11 C          -5.6987    0.3603   -1.2721 C.2     1  LIG1      -0.17999999999999972
     12 C          -3.3533    0.9603   -2.1674 C.3     1  LIG1      -0.34999999999999964
     13 C          -1.1408    0.0538   -1.5084 C.2     1  LIG1      -0.20000000000000018
     14 C           1.3069    0.4254   -0.9444 C.3     1  LIG1      -0.33999999999999986
     15 C           3.1389    0.6599    0.7141 C.2     1  LIG1      -0.21999999999999975
     16 C           4.3419    0.3160    1.5466 C.3     1  LIG1       -0.11000000000000032
     17 C         -11.0731    0.0617    0.8938 C.2     1  LIG1      0.1900000000000004
     18 C          -6.7384   -0.4480   -0.9400 C.2     1  LIG1      0.16000000000000014
     19 C          -2.3559    0.4842   -1.1268 C.2     1  LIG1      0.17999999999999972
     20 C           2.5383   -0.0912   -0.2238 C.2     1  LIG1      0.1900000000000004
     21 O           6.0488   -1.9882    0.2712 O.3     1  LIG1        -0.75
     22 O           8.4347   -2.1341    1.2328 O.3     1  LIG1      -0.8000000000000007
     23 O           8.0591   -1.2556   -1.1451 O.2     1  LIG1      -0.7899999999999991
     24 O           7.4990    2.4081    2.0790 O.2     1  LIG1      -0.6999999999999993
     25 O           6.6479    0.2457    3.3240 O.3     1  LIG1        -0.75
     26 O           5.2243    1.4285    1.5262 O.3     1  LIG1      -0.6199999999999992
     27 O           7.3577    0.2102    0.7915 O.3     1  LIG1      -0.6799999999999997
     28 P           7.4829   -1.4093    0.2729 P.3     1  LIG1       0.8800000000000008
     29 P           6.8056    1.0676    2.0673 P.3     1  LIG1          1.08
     30 H         -12.1472   -1.7025    0.1923 H       1  LIG1       0.16000000000000003
     31 H         -10.3931   -1.7730   -0.0595 H       1  LIG1       0.16000000000000003
     32 H         -11.0797   -2.0057    1.5571 H       1  LIG1       0.16000000000000003
     33 H         -13.1031    0.4037    1.6227 H       1  LIG1       0.16000000000000003
     34 H         -11.9254    1.6435    2.1038 H       1  LIG1       0.16000000000000003
     35 H         -11.9365    0.0523    2.8925 H       1  LIG1       0.16000000000000003
     36 H          -7.2445   -2.5518   -0.8588 H       1  LIG1       0.16000000000000003
     37 H          -6.1390   -2.1362   -2.1821 H       1  LIG1       0.16000000000000003
     38 H          -7.8588   -1.7323   -2.2905 H       1  LIG1       0.17000000000000004
     39 H          -3.6973   -0.0939    0.4677 H       1  LIG1       0.16000000000000003
     40 H          -2.0429    0.2613    1.0157 H       1  LIG1       0.16000000000000003
     41 H          -3.1485    1.5712    0.5606 H       1  LIG1       0.16000000000000003
     42 H           2.9149   -1.5799   -1.7386 H       1  LIG1          0.14
     43 H           2.4265   -2.2667   -0.1894 H       1  LIG1       0.15000000000000002
     44 H           4.0814   -1.6361   -0.3892 H       1  LIG1       0.18999999999999995
     45 H          -8.8353    1.3519   -1.3424 H       1  LIG1          0.14
     46 H          -9.4590   -0.2928   -1.3808 H       1  LIG1       0.15000000000000002
     47 H          -4.3492   -0.9519   -2.3425 H       1  LIG1       0.15000000000000002
     48 H          -5.0550    0.3170   -3.3231 H       1  LIG1       0.15000000000000002
     49 H          -0.1928   -0.3965    0.3907 H       1  LIG1       0.15000000000000002
     50 H           0.2467   -1.4604   -0.9360 H       1  LIG1       0.15000000000000002
     51 H         -10.2164    1.9566    0.5456 H       1  LIG1          0.13
     52 H          -8.1048   -0.8056    0.6935 H       1  LIG1          0.14
     53 H          -7.4396    0.8265    0.6446 H       1  LIG1          0.14
     54 H          -5.6246    1.3195   -0.7564 H       1  LIG1          0.13
     55 H          -2.8503    0.9958   -3.1423 H       1  LIG1          0.14
     56 H          -3.6581    1.9967   -1.9418 H       1  LIG1          0.14
     57 H          -0.9311    0.0682   -2.5823 H       1  LIG1          0.12
     58 H           1.1022    1.4669   -0.6612 H       1  LIG1          0.14
     59 H           1.4864    0.4242   -2.0345 H       1  LIG1          0.14
     60 H           2.7264    1.6538    0.9195 H       1  LIG1          0.12
     61 H           4.8411   -0.5929    1.1891 H       1  LIG1       0.18999999999999995
     62 H           4.0075    0.1155    2.5845 H       1  LIG1       0.10999999999999999
@<TRIPOS>BOND
     1    48     7    1
     2    55    12    1
     3    57    13    1
     4    47     7    1
     5     7    12    1
     6     7    11    1
     7    38     3    1
     8    37     3    1
     9    12    56    1
    10    12    19    1
    11    59    14    1
    12    42     5    1
    13     3    18    1
    14     3    36    1
    15    13    19    2
    16    13     8    1
    17    46     6    1
    18    45     6    1
    19    11    18    2
    20    11    54    1
    21    23    28    2
    22    19     4    1
    23    14     8    1
    24    14    58    1
    25    14    20    1
    26    18    10    1
    27    50     8    1
    28     6    10    1
    29     6     9    1
    30     8    49    1
    31     5    44    1
    32     5    20    1
    33     5    43    1
    34    20    15    2
    35    31     1    1
    36    10    53    1
    37    10    52    1
    38    30     1    1
    39     9    51    1
    40     9    17    2
    41    21    28    1
    42    28    27    1
    43    28    22    1
    44     4    39    1
    45     4    41    1
    46     4    40    1
    47     1    17    1
    48     1    32    1
    49    15    60    1
    50    15    16    1
    51    27    29    1
    52    17     2    1
    53    61    16    1
    54    26    16    1
    55    26    29    1
    56    16    62    1
    57    33     2    1
    58     2    34    1
    59     2    35    1
    60    29    24    2
    61    29    25    1
