@<TRIPOS>MOLECULE
OINXHIBNZUUIMR-IXUYQXAASA-J	11169064	-4137.449614560224
 95 97 0 0 0
SMALL
MULLIKEN NwChem

@<TRIPOS>ATOM
      1 C           7.1754    2.4015    0.6696 C.3     1  LIG1      -0.45999999999999996
      2 C           2.1696   -2.7910   -2.7040 C.3     1  LIG1      -0.46999999999999975
      3 C           2.6773   -0.4978   -3.6533 C.3     1  LIG1      -0.4800000000000004
      4 C           8.5427    1.9868    1.2179 C.3     1  LIG1      -0.28000000000000025
      5 C           8.4881    1.6471    2.7270 C.3     1  LIG1      -0.3099999999999996
      6 C           9.8512    1.3015    3.2640 C.2     1  LIG1      -0.08999999999999986
      7 C          10.4599    0.1374    2.9795 C.2     1  LIG1      -0.1900000000000004
      8 C           7.2660   -1.8830    0.6605 C.3     1  LIG1       -0.33000000000000007
      9 C           6.6159   -1.0704   -0.4934 C.3     1  LIG1       -0.13999999999999968
     10 C          10.9670   -1.7144    0.2221 C.3     1  LIG1       -0.11000000000000032
     11 C          11.6066   -2.4227    1.4647 C.3     1  LIG1       -0.4400000000000004
     12 C          -4.1523    0.9051   -0.1376 C.3     1  LIG1       -0.1200000000000001
     13 C           1.4672   -0.7192   -1.4665 C.3     1  LIG1       -0.040000000000000036
     14 C         -10.7701    2.3866    2.2359 C.ar    1  LIG1       0.15000000000000036
     15 C          -6.8791    0.4567    2.0046 C.ar    1  LIG1       0.20999999999999996
     16 C          -5.2133    0.8626   -1.2346 C.3     1  LIG1       0.08999999999999986
     17 C           8.7417   -2.2958    0.4998 C.2     1  LIG1       0.4800000000000004
     18 C          11.8569   -0.0934    3.3759 C.2     1  LIG1          0.25
     19 C          -8.5797    1.1388    3.0790 C.ar    1  LIG1       0.1900000000000004
     20 C          -6.7310    2.6573   -0.7198 C.3     1  LIG1       0.08000000000000007
     21 C          -5.6074    2.2589   -1.7122 C.3     1  LIG1       0.07000000000000028
     22 C           3.9038   -1.2849   -1.5911 C.3     1  LIG1       0.05999999999999961
     23 C          -9.6121    1.4364    3.9796 C.ar    1  LIG1       0.4500000000000002
     24 C          -8.7799    1.5420    1.7457 C.ar    1  LIG1       0.5300000000000002
     25 C           5.1971   -1.8587   -2.3228 C.2     1  LIG1       0.4299999999999997
     26 C          -7.3566    1.2709   -0.3737 C.3     1  LIG1       0.2699999999999996
     27 C           2.5558   -1.3394   -2.3699 C.3     1  LIG1       0.07000000000000028
     28 N          -9.5060    1.1197    5.3208 N.pl3   1  LIG1      -0.7800000000000002
     29 N           9.6062   -1.2684    0.4059 N.am    1  LIG1      -0.5599999999999996
     30 N           6.3537   -1.8617   -1.6735 N.am    1  LIG1      -0.6100000000000003
     31 N         -10.7193    2.0613    3.5462 N.ar    1  LIG1        -0.54
     32 N          -9.8698    2.1749    1.2780 N.ar    1  LIG1        -0.54
     33 N          -7.3886    0.4586    3.2242 N.ar    1  LIG1      -0.5800000000000001
     34 N          -7.6654    1.1063    1.0721 N.ar    1  LIG1      -0.5199999999999996
     35 O           9.0490   -3.5198    0.5319 O.2     1  LIG1      -0.6999999999999993
     36 O          12.4863    0.5755    4.1909 O.2     1  LIG1      -0.5299999999999994
     37 O          -7.6440    3.5562   -1.2928 O.3     1  LIG1      -0.6799999999999997
     38 O           3.7447   -1.9841   -0.3332 O.3     1  LIG1      -0.6999999999999993
     39 O           5.0434   -2.3625   -3.4733 O.2     1  LIG1      -0.6799999999999997
     40 O          -4.3751    1.0770   -4.3604 O.3     1  LIG1      -0.7400000000000002
     41 O          -4.2955    3.6379   -3.9760 O.3     1  LIG1      -0.7100000000000009
     42 O          -6.1628    2.5141   -5.5011 O.2     1  LIG1      -0.6799999999999997
     43 O          -3.5349   -1.8244   -1.6064 O.3     1  LIG1      -0.7300000000000004
     44 O          -2.9856   -2.6788    0.7900 O.2     1  LIG1      -0.5999999999999996
     45 O          -2.1637    0.0503   -2.6963 O.2     1  LIG1      -0.7300000000000004
     46 O          -0.6587    1.5042   -1.0916 O.3     1  LIG1      -0.6600000000000001
     47 O          -3.9764   -0.3675    0.4976 O.3     1  LIG1      -0.5500000000000007
     48 O           0.1909   -0.7170   -2.1716 O.3     1  LIG1      -0.5500000000000007
     49 O          -6.4508    0.2746   -0.7315 O.3     1  LIG1      -0.5299999999999994
     50 O          -6.2218    2.2305   -2.9825 O.3     1  LIG1      -0.6400000000000006
     51 O          -1.5911   -0.7779   -0.3351 O.3     1  LIG1      -0.6699999999999999
     52 P          -5.2009    2.5002   -4.3553 P.3     1  LIG1          1.08
     53 P          -2.9943   -1.5246   -0.1353 P.3     1  LIG1       1.2200000000000006
     54 P          -1.0467    0.1838   -1.6614 P.3     1  LIG1       1.2300000000000004
     55 S          12.7514   -1.4496    2.5707 S.3     1  LIG1      0.019999999999999574
     56 H           6.7805    3.2886    1.1876 H       1  LIG1          0.14
     57 H           7.2349    2.6315   -0.4006 H       1  LIG1       0.15000000000000002
     58 H           6.4491    1.5891    0.7777 H       1  LIG1       0.16000000000000003
     59 H           1.1884   -2.8240   -3.1916 H       1  LIG1          0.13
     60 H           2.1188   -3.3787   -1.7800 H       1  LIG1          0.13
     61 H           2.9393   -3.2163   -3.3510 H       1  LIG1       0.15000000000000002
     62 H           2.9462    0.5409   -3.4100 H       1  LIG1          0.13
     63 H           1.7201   -0.4761   -4.1859 H       1  LIG1          0.14
     64 H           3.4598   -0.9257   -4.2826 H       1  LIG1       0.16000000000000003
     65 H           8.9084    1.0925    0.6939 H       1  LIG1       0.16000000000000003
     66 H           9.2766    2.7925    1.0567 H       1  LIG1          0.13
     67 H           7.8097    0.7925    2.8478 H       1  LIG1       0.17000000000000004
     68 H           8.0544    2.4891    3.2879 H       1  LIG1       0.15000000000000002
     69 H          10.3991    2.0576    3.8299 H       1  LIG1       0.16000000000000003
     70 H           9.9672   -0.5667    2.2987 H       1  LIG1       0.18999999999999995
     71 H           6.6851   -2.7976    0.8328 H       1  LIG1       0.09999999999999998
     72 H           7.1989   -1.2711    1.5777 H       1  LIG1          0.13
     73 H           5.7340   -0.5601   -0.0566 H       1  LIG1       0.10999999999999999
     74 H           7.3363   -0.2701   -0.7419 H       1  LIG1       0.10999999999999999
     75 H          11.0422   -2.4616   -0.5891 H       1  LIG1       0.10999999999999999
     76 H          11.6033   -0.8588   -0.0531 H       1  LIG1          0.12
     77 H          10.8190   -2.8810    2.0628 H       1  LIG1       0.18999999999999995
     78 H          12.2819   -3.2318    1.1532 H       1  LIG1       0.18999999999999995
     79 H          -4.4668    1.5844    0.6655 H       1  LIG1       0.19999999999999996
     80 H          -3.2099    1.2928   -0.5383 H       1  LIG1       0.19999999999999996
     81 H           1.3523   -1.3024   -0.5478 H       1  LIG1       0.16000000000000003
     82 H           1.7185    0.3148   -1.2029 H       1  LIG1       0.15000000000000002
     83 H         -11.6850    2.8893    1.9228 H       1  LIG1       0.16000000000000003
     84 H          -5.9540   -0.0230    1.7071 H       1  LIG1       0.21999999999999997
     85 H          -4.8947    0.2376   -2.0643 H       1  LIG1       0.18000000000000005
     86 H          -6.3178    3.1049    0.1927 H       1  LIG1       0.18999999999999995
     87 H          -4.7692    2.9661   -1.7071 H       1  LIG1       0.18000000000000005
     88 H           4.0854   -0.2202   -1.3544 H       1  LIG1          0.12
     89 H          -8.3106    1.1602   -0.9010 H       1  LIG1       0.18000000000000005
     90 H         -10.3939    1.0175    5.7946 H       1  LIG1          0.37
     91 H          -8.8235    0.3985    5.5206 H       1  LIG1          0.37
     92 H          -7.5100    3.3938   -2.2557 H       1  LIG1       0.43999999999999995
     93 H           4.5442   -2.5335   -0.2706 H       1  LIG1       0.41000000000000003
     94 H          -3.0673   -1.1804   -2.2503 H       1  LIG1          0.49
     95 H          -3.5338    1.1088   -3.8589 H       1  LIG1       0.45999999999999996
@<TRIPOS>BOND
     1    42    52    2
     2    40    52    1
     3    40    95    1
     4    52    41    1
     5    52    50    1
     6    64     3    1
     7    63     3    1
     8     3    62    1
     9     3    27    1
    10    39    25    2
    11    61     2    1
    12    59     2    1
    13    50    21    1
    14     2    27    1
    15     2    60    1
    16    45    54    2
    17    27    22    1
    18    27    13    1
    19    25    30   am
    20    25    22    1
    21    92    37    1
    22    94    43    1
    23    48    54    1
    24    48    13    1
    25    85    16    1
    26    21    87    1
    27    21    16    1
    28    21    20    1
    29    30     9    1
    30    54    46    1
    31    54    51    1
    32    43    53    1
    33    22    88    1
    34    22    38    1
    35    13    82    1
    36    13    81    1
    37    37    20    1
    38    16    49    1
    39    16    12    1
    40    89    26    1
    41    74     9    1
    42    49    26    1
    43    20    26    1
    44    20    86    1
    45    75    10    1
    46    80    12    1
    47     9    73    1
    48     9     8    1
    49    57     1    1
    50    26    34    1
    51    51    53    1
    52    38    93    1
    53    12    47    1
    54    12    79    1
    55    53    47    1
    56    53    44    2
    57    76    10    1
    58    10    29    1
    59    10    11    1
    60    29    17   am
    61    17    35    2
    62    17     8    1
    63     8    71    1
    64     8    72    1
    65     1    58    1
    66     1    56    1
    67     1     4    1
    68    65     4    1
    69    66     4    1
    70    34    24   ar
    71    34    15   ar
    72    78    11    1
    73     4     5    1
    74    32    24   ar
    75    32    14   ar
    76    11    77    1
    77    11    55    1
    78    84    15    1
    79    24    19   ar
    80    83    14    1
    81    15    33   ar
    82    14    31   ar
    83    70     7    1
    84    55    18    1
    85     5    67    1
    86     5     6    1
    87     5    68    1
    88     7     6    2
    89     7    18    1
    90    19    33   ar
    91    19    23   ar
    92     6    69    1
    93    18    36    2
    94    31    23   ar
    95    23    28    1
    96    28    91    1
    97    28    90    1
