@<TRIPOS>MOLECULE
OIPPWFOQEKKFEE-UHFFFAOYSA-N	6044989	-421.9097920545116
 17 17 0 0 0
SMALL
MULLIKEN NwChem

@<TRIPOS>ATOM
      1 C           0.8341   -2.6692   -0.6389 C.3     1  LIG1            -0.54
      2 C          -0.7481   -1.0465    0.4755 C.ar    1  LIG1      -0.28000000000000025
      3 C           1.1411   -0.1666   -0.7410 C.ar    1  LIG1      -0.28000000000000025
      4 C          -0.4302    1.3585    0.3154 C.ar    1  LIG1         -0.25
      5 C           0.4042   -1.2643   -0.2849 C.ar    1  LIG1      0.16000000000000014
      6 C          -1.1586    0.2601    0.7697 C.ar    1  LIG1       0.34999999999999964
      7 C           0.7203    1.1343   -0.4409 C.ar    1  LIG1       0.34999999999999964
      8 O          -2.2780    0.5235    1.5109 O.3     1  LIG1      -0.6799999999999997
      9 O           1.4072    2.2391   -0.8641 O.3     1  LIG1      -0.6799999999999997
     10 H           0.4611   -2.9564   -1.6309 H       1  LIG1       0.18000000000000005
     11 H           0.4501   -3.4006    0.0799 H       1  LIG1       0.17000000000000004
     12 H           1.9257   -2.7599   -0.6636 H       1  LIG1       0.17000000000000004
     13 H          -1.3279   -1.8927    0.8398 H       1  LIG1       0.15000000000000002
     14 H           2.0431   -0.3231   -1.3303 H       1  LIG1       0.15000000000000002
     15 H          -0.7491    2.3673    0.5494 H       1  LIG1       0.15000000000000002
     16 H          -2.6904   -0.3163    1.7649 H       1  LIG1       0.44999999999999996
     17 H           2.1791    1.9506   -1.3748 H       1  LIG1       0.44999999999999996
@<TRIPOS>BOND
     1    10     1    1
     2    17     9    1
     3    14     3    1
     4     9     7    1
     5     3     7   ar
     6     3     5   ar
     7    12     1    1
     8     1     5    1
     9     1    11    1
    10     7     4   ar
    11     5     2   ar
    12     4    15    1
    13     4     6   ar
    14     2     6   ar
    15     2    13    1
    16     6     8    1
    17     8    16    1
