@<TRIPOS>MOLECULE
OISJAAYQHIBAQP-UHFFFAOYSA-N	6044991	-670.2651255189446
 18 17 0 0 0
SMALL
MULLIKEN NwChem

@<TRIPOS>ATOM
      1 C           0.2989    0.9921   -1.5074 C.3     1  LIG1      -0.6200000000000001
      2 C          -1.8509    1.4300    0.2868 C.3     1  LIG1      -0.6200000000000001
      3 C          -0.1585   -1.5111    0.6876 C.3     1  LIG1       -0.3799999999999999
      4 C           0.7501   -2.1291   -0.3660 C.2     1  LIG1       0.2699999999999996
      5 C           0.3606   -0.1706    1.2065 C.3     1  LIG1      -0.45999999999999996
      6 O           1.7119   -1.5521   -0.8221 O.2     1  LIG1      -0.4299999999999997
      7 S          -0.0301    1.3602    0.2477 S.3     1  LIG1      0.5700000000000003
      8 H           0.0717    1.9076   -2.0593 H       1  LIG1          0.25
      9 H          -0.3224    0.1639   -1.8519 H       1  LIG1          0.25
     10 H           1.3550    0.7363   -1.5966 H       1  LIG1          0.26
     11 H          -2.2871    0.5205   -0.1315 H       1  LIG1          0.25
     12 H          -2.1560    1.5679    1.3268 H       1  LIG1          0.25
     13 H          -2.1524    2.3015   -0.2994 H       1  LIG1          0.25
     14 H          -0.2119   -2.2074    1.5371 H       1  LIG1       0.22999999999999998
     15 H          -1.1862   -1.4676    0.3019 H       1  LIG1          0.24
     16 H           0.4794   -3.1531   -0.6874 H       1  LIG1       0.17000000000000004
     17 H           1.4533   -0.1711    1.2576 H       1  LIG1          0.25
     18 H          -0.0318    0.0670    2.2001 H       1  LIG1           0.26
@<TRIPOS>BOND
     1     8     1    1
     2     9     1    1
     3    10     1    1
     4     1     7    1
     5     6     4    2
     6    16     4    1
     7     4     3    1
     8    13     2    1
     9    11     2    1
    10     7     2    1
    11     7     5    1
    12     2    12    1
    13    15     3    1
    14     3     5    1
    15     3    14    1
    16     5    17    1
    17     5    18    1
