@<TRIPOS>MOLECULE
OITBLCDWXSXNCN-UHFFFAOYSA-N	6044992	-405.9202984583109
 25 24 0 0 0
SMALL
MULLIKEN NwChem

@<TRIPOS>ATOM
      1 C          -0.2666    0.4207   -1.6347 C.3     1  LIG1      -0.33999999999999986
      2 C          -0.0143    2.6259   -0.5981 C.3     1  LIG1      -0.33999999999999986
      3 C          -2.1719    1.4639   -0.4756 C.3     1  LIG1      -0.33999999999999986
      4 C          -0.6122   -0.7781    1.1825 C.3     1  LIG1      -0.3099999999999996
      5 C           0.2273   -1.9085    0.5361 C.3     1  LIG1      -0.3600000000000003
      6 C          -0.2190    0.6717    0.8744 C.3     1  LIG1      -0.15000000000000036
      7 C           1.6465   -1.5098    0.2050 C.3     1  LIG1       0.08000000000000007
      8 N          -0.6782    1.2768   -0.4619 N.4     1  LIG1       -0.3600000000000003
      9 O           2.4028   -2.5674    0.3626 O.3     1  LIG1         -0.5
     10 H          -0.4142    0.9934   -2.5518 H       1  LIG1       0.21999999999999997
     11 H          -0.8943   -0.4692   -1.6550 H       1  LIG1       0.21999999999999997
     12 H           0.7785    0.1339   -1.5015 H       1  LIG1       0.20999999999999996
     13 H          -0.3850    3.1144   -1.5007 H       1  LIG1       0.21999999999999997
     14 H          -0.2542    3.2307    0.2778 H       1  LIG1       0.21999999999999997
     15 H           1.0643    2.4790   -0.6685 H       1  LIG1       0.21999999999999997
     16 H          -2.6566    0.4971   -0.3431 H       1  LIG1       0.21999999999999997
     17 H          -2.4544    2.1377    0.3350 H       1  LIG1       0.21999999999999997
     18 H          -2.4634    1.8923   -1.4362 H       1  LIG1       0.21999999999999997
     19 H          -0.4805   -0.8512    2.2690 H       1  LIG1       0.18999999999999995
     20 H          -1.6813   -0.9519    1.0174 H       1  LIG1       0.18999999999999995
     21 H           0.1613   -2.8162    1.1521 H       1  LIG1       0.16000000000000003
     22 H          -0.1881   -2.1892   -0.4459 H       1  LIG1       0.19999999999999996
     23 H           0.8680    0.7608    0.8743 H       1  LIG1       0.19999999999999996
     24 H          -0.6367    1.3391    1.6325 H       1  LIG1       0.20999999999999996
     25 H           3.3196   -2.3489    0.1086 H       1  LIG1           0.47
@<TRIPOS>BOND
     1    10     1    1
     2    11     1    1
     3     1    12    1
     4     1     8    1
     5    13     2    1
     6    18     3    1
     7    15     2    1
     8     2     8    1
     9     2    14    1
    10     3     8    1
    11     3    16    1
    12     3    17    1
    13     8     6    1
    14    22     5    1
    15    25     9    1
    16     7     9    1
    17     7     5    1
    18     5    21    1
    19     5     4    1
    20    23     6    1
    21     6     4    1
    22     6    24    1
    23    20     4    1
    24     4    19    1
