@<TRIPOS>MOLECULE
OIUJHGOLFKDBSU-HTQZYQBOSA-M	11085298	-817.9082275922418
 26 26 0 0 0
SMALL
MULLIKEN NwChem

@<TRIPOS>ATOM
      1 C           2.1392   -1.4833    2.5301 C.2     1  LIG1      -0.41000000000000014
      2 C          -2.1588   -0.0924   -1.0881 C.2     1  LIG1      -0.16000000000000014
      3 C          -2.2272   -1.3928   -0.7606 C.2     1  LIG1      -0.15000000000000036
      4 C           0.2699   -0.0300   -0.8315 C.2     1  LIG1      -0.1900000000000004
      5 C           1.3292   -0.6650    1.8511 C.2     1  LIG1       0.2999999999999998
      6 C          -0.8732    0.6035   -1.1499 C.2     1  LIG1       0.08000000000000007
      7 C          -0.9768   -2.2237   -0.5718 C.3     1  LIG1       -0.05999999999999961
      8 C           0.2499   -1.3839   -0.1757 C.3     1  LIG1       0.11000000000000032
      9 C           1.5721    0.8673    1.7862 C.2     1  LIG1       0.5199999999999996
     10 C          -0.8690    2.0641   -1.4972 C.2     1  LIG1       0.5199999999999996
     11 N          -0.6443   -2.9860   -1.8084 N.3     1  LIG1      -0.7599999999999998
     12 O           0.5841    1.5538    1.3668 O.co2   1  LIG1      -0.6500000000000004
     13 O           2.6883    1.2566    2.1650 O.co2   1  LIG1      -0.6300000000000008
     14 O          -1.6233    2.5273   -2.3410 O.2     1  LIG1      -0.5399999999999991
     15 O          -0.0029    2.8173   -0.8215 O.3     1  LIG1      -0.6400000000000006
     16 O           0.1933   -1.2150    1.2565 O.2     1  LIG1      -0.5500000000000007
     17 H           2.9993   -1.0658    3.0396 H       1  LIG1       0.16000000000000003
     18 H           1.9420   -2.5507    2.5904 H       1  LIG1       0.16000000000000003
     19 H          -3.0469    0.4904   -1.3174 H       1  LIG1       0.15000000000000002
     20 H          -3.1846   -1.9119   -0.7262 H       1  LIG1       0.16000000000000003
     21 H           1.2180    0.4915   -0.8821 H       1  LIG1       0.17000000000000004
     22 H          -1.1153   -2.9577    0.2301 H       1  LIG1       0.16000000000000003
     23 H           1.1484   -1.9657   -0.4251 H       1  LIG1          0.14
     24 H          -0.5183   -2.2985   -2.5552 H       1  LIG1       0.31999999999999995
     25 H          -1.4747   -3.5125   -2.0853 H       1  LIG1       0.32999999999999996
     26 H           0.3267    2.3552    0.0338 H       1  LIG1       0.45999999999999996
@<TRIPOS>BOND
     1    24    11    1
     2    14    10    2
     3    25    11    1
     4    11     7    1
     5    10     6    1
     6    10    15    1
     7    19     2    1
     8     6     2    1
     9     6     4    2
    10     2     3    2
    11    21     4    1
    12     4     8    1
    13    15    26    1
    14     3    20    1
    15     3     7    1
    16     7     8    1
    17     7    22    1
    18    23     8    1
    19     8    16    1
    20    16     5    1
    21    12     9   ar
    22     9     5    1
    23     9    13   ar
    24     5     1    2
    25     1    18    1
    26     1    17    1
