@<TRIPOS>MOLECULE
OJFDKHTZOUZBOS-CITAKDKDSA-J	11085297	-4134.119599799456
 90 92 0 0 0
SMALL
MULLIKEN NwChem

@<TRIPOS>ATOM
      1 C          12.4540    1.5439   -2.9360 C.3     1  LIG1      -0.5300000000000002
      2 C           2.4815    1.2806    1.4214 C.3     1  LIG1      -0.4900000000000002
      3 C           2.0968   -1.1713    1.7955 C.3     1  LIG1      -0.4900000000000002
      4 C           8.1029   -0.2485   -0.8870 C.3     1  LIG1       -0.3200000000000003
      5 C           6.6932   -0.1934   -0.2459 C.3     1  LIG1       -0.1200000000000001
      6 C          10.1557    2.1852    1.0967 C.3     1  LIG1       -0.1200000000000001
      7 C          11.4467    1.6688    1.7760 C.3     1  LIG1       -0.41000000000000014
      8 C          12.0558   -0.5385   -1.4867 C.3     1  LIG1       -0.4299999999999997
      9 C          -5.2148    0.2135    2.6127 C.3     1  LIG1       -0.08000000000000007
     10 C           1.4243   -0.1311   -0.4063 C.3     1  LIG1       -0.05999999999999961
     11 C         -10.2694    1.9938   -2.9404 C.ar    1  LIG1       0.15000000000000036
     12 C          -6.4560    1.0123   -1.0805 C.ar    1  LIG1       0.20000000000000018
     13 C          13.0265    0.2862   -2.3287 C.2     1  LIG1       0.4400000000000004
     14 C          -6.7063    0.0046    2.3983 C.3     1  LIG1       0.1299999999999999
     15 C           9.1138    0.8638   -0.5537 C.2     1  LIG1       0.4800000000000004
     16 C          12.2182   -0.4070    0.0140 C.2     1  LIG1       0.29000000000000004
     17 C          -7.6435    1.6403   -2.7275 C.ar    1  LIG1       0.1900000000000004
     18 C          -8.4040   -0.8522    0.9193 C.3     1  LIG1       0.07000000000000028
     19 C          -7.0665   -1.2437    1.5958 C.3     1  LIG1       0.08999999999999986
     20 C           3.8938   -0.4188    0.1962 C.3     1  LIG1       0.04999999999999982
     21 C          -8.2035    2.0385   -3.9495 C.ar    1  LIG1       0.4500000000000002
     22 C          -8.5423    1.4402   -1.6661 C.ar    1  LIG1          0.54
     23 C           4.5015    0.6092   -0.8290 C.2     1  LIG1       0.45999999999999996
     24 C          -8.2263    0.6671    0.7388 C.3     1  LIG1       0.2400000000000002
     25 C           2.4618   -0.0998    0.7421 C.3     1  LIG1       0.08000000000000007
     26 N          -7.4113    2.2927   -5.0486 N.pl3   1  LIG1      -0.7800000000000002
     27 N           9.2535    1.1292    0.7373 N.am    1  LIG1      -0.5800000000000001
     28 N           5.8074    0.6851   -0.9887 N.am    1  LIG1      -0.6200000000000001
     29 N          -9.5348    2.2062   -4.0518 N.ar    1  LIG1        -0.54
     30 N          -9.8746    1.6177   -1.7238 N.ar    1  LIG1        -0.54
     31 N          -6.3470    1.3693   -2.3456 N.ar    1  LIG1      -0.5800000000000001
     32 N          -7.7604    1.0373   -0.6128 N.ar    1  LIG1      -0.5099999999999998
     33 O          14.1770   -0.0846   -2.5273 O.2     1  LIG1      -0.5099999999999998
     34 O           9.7930    1.3448   -1.5312 O.2     1  LIG1      -0.6799999999999997
     35 O          11.9751   -1.3024    0.7913 O.2     1  LIG1      -0.47000000000000064
     36 O          -9.5198   -1.0867    1.7443 O.3     1  LIG1      -0.7100000000000009
     37 O           3.9211   -1.7208   -0.4401 O.3     1  LIG1      -0.6899999999999995
     38 O           3.6476    1.3191   -1.4471 O.2     1  LIG1      -0.6999999999999993
     39 O          -7.2423   -4.8415    2.9464 O.3     1  LIG1      -0.6600000000000001
     40 O          -9.0109   -3.6864    1.3808 O.2     1  LIG1      -0.7300000000000004
     41 O          -6.6113   -3.9323    0.5615 O.3     1  LIG1        -0.75
     42 O          -4.1409   -2.3680    0.5810 O.2     1  LIG1      -0.6300000000000008
     43 O          -2.7309   -1.4110    2.5983 O.3     1  LIG1      -0.7100000000000009
     44 O          -1.0145    0.4890    2.1112 O.3     1  LIG1      -0.7300000000000004
     45 O          -1.0993    1.7297   -0.1584 O.2     1  LIG1      -0.6099999999999994
     46 O          -4.4691    0.0751    1.4034 O.3     1  LIG1      -0.5800000000000001
     47 O           0.0923   -0.5855    0.0387 O.3     1  LIG1      -0.5500000000000007
     48 O          -7.2664    1.1216    1.6645 O.3     1  LIG1      -0.5399999999999991
     49 O          -7.1139   -2.3385    2.4838 O.3     1  LIG1      -0.6300000000000008
     50 O          -2.3737   -0.5424    0.1973 O.3     1  LIG1      -0.6300000000000008
     51 P          -7.5805   -3.8415    1.8855 P.3     1  LIG1       1.0899999999999999
     52 P          -3.4395   -1.2375    1.2676 P.3     1  LIG1       1.2100000000000009
     53 P          -1.0751    0.4066    0.5077 P.3     1  LIG1       1.2200000000000006
     54 S          12.8010    1.2427    0.5810 S.3     1  LIG1      0.009999999999999787
     55 H          11.8299    2.0656   -2.2019 H       1  LIG1       0.20999999999999996
     56 H          13.2527    2.1653   -3.3531 H       1  LIG1       0.16000000000000003
     57 H          11.7501    1.2522   -3.7283 H       1  LIG1       0.18000000000000005
     58 H           3.2197    1.2992    2.2369 H       1  LIG1          0.14
     59 H           2.7576    2.0348    0.6809 H       1  LIG1       0.15000000000000002
     60 H           1.5003    1.5188    1.8489 H       1  LIG1       0.15000000000000002
     61 H           1.9543   -2.1613    1.3425 H       1  LIG1          0.14
     62 H           1.1604   -0.9199    2.2990 H       1  LIG1       0.16000000000000003
     63 H           2.8919   -1.2426    2.5520 H       1  LIG1       0.15000000000000002
     64 H           8.5918   -1.1893   -0.5749 H       1  LIG1          0.12
     65 H           7.9903   -0.2806   -1.9761 H       1  LIG1       0.10999999999999999
     66 H           6.3295   -1.2386   -0.1994 H       1  LIG1       0.08999999999999997
     67 H           6.8415    0.1263    0.8041 H       1  LIG1       0.08999999999999997
     68 H          10.4388    2.8463    0.2589 H       1  LIG1       0.10999999999999999
     69 H           9.6749    2.8223    1.8672 H       1  LIG1          0.12
     70 H          11.2320    0.7644    2.3541 H       1  LIG1       0.18000000000000005
     71 H          11.8993    2.4200    2.4409 H       1  LIG1       0.18000000000000005
     72 H          11.0282   -0.1516   -1.6758 H       1  LIG1          0.25
     73 H          12.1467   -1.5989   -1.7433 H       1  LIG1       0.18999999999999995
     74 H          -5.0411    1.2271    2.9977 H       1  LIG1       0.18000000000000005
     75 H          -4.8663   -0.5044    3.3626 H       1  LIG1       0.18000000000000005
     76 H           1.7231   -0.8789   -1.1406 H       1  LIG1       0.16000000000000003
     77 H           1.3414    0.8365   -0.8948 H       1  LIG1       0.17000000000000004
     78 H         -11.3418    2.1486   -3.0624 H       1  LIG1       0.16000000000000003
     79 H          -5.6366    0.7327   -0.4265 H       1  LIG1       0.22999999999999998
     80 H          -7.2048   -0.0524    3.3762 H       1  LIG1       0.16000000000000003
     81 H          -8.5145   -1.3544   -0.0506 H       1  LIG1       0.16000000000000003
     82 H          -6.3143   -1.4066    0.8184 H       1  LIG1       0.18000000000000005
     83 H           4.5466   -0.4556    1.0867 H       1  LIG1          0.12
     84 H          -9.1857    1.1762    0.8769 H       1  LIG1       0.18000000000000005
     85 H          -7.8812    2.1964   -5.9389 H       1  LIG1          0.37
     86 H          -6.4850    1.8853   -4.9978 H       1  LIG1          0.37
     87 H          -9.5270   -2.0887    1.7835 H       1  LIG1       0.43999999999999995
     88 H           3.7175   -2.3682    0.2532 H       1  LIG1       0.42000000000000004
     89 H          -5.7158   -3.5612    0.7341 H       1  LIG1       0.45999999999999996
     90 H          -1.5671   -0.2607    2.5096 H       1  LIG1           0.48
@<TRIPOS>BOND
     1    85    26    1
     2    26    86    1
     3    26    21    1
     4    29    21   ar
     5    29    11   ar
     6    21    17   ar
     7    57     1    1
     8    56     1    1
     9    78    11    1
    10    11    30   ar
    11     1    13    1
    12     1    55    1
    13    17    31   ar
    14    17    22   ar
    15    33    13    2
    16    31    12   ar
    17    13     8    1
    18    65     4    1
    19    73     8    1
    20    30    22   ar
    21    72     8    1
    22    22    32   ar
    23    34    15    2
    24     8    16    1
    25    38    23    2
    26    76    10    1
    27    12    32   ar
    28    12    79    1
    29    28    23   am
    30    28     5    1
    31    77    10    1
    32     4    64    1
    33     4    15    1
    34     4     5    1
    35    23    20    1
    36    32    24    1
    37    15    27   am
    38    37    20    1
    39    37    88    1
    40    10    47    1
    41    10    25    1
    42     5    66    1
    43     5    67    1
    44    45    53    2
    45    81    18    1
    46    16    54    1
    47    16    35    2
    48    47    53    1
    49    20    25    1
    50    20    83    1
    51    50    53    1
    52    50    52    1
    53    68     6    1
    54    53    44    1
    55    41    89    1
    56    41    51    1
    57    42    52    2
    58    54     7    1
    59    59     2    1
    60    27     6    1
    61    24    84    1
    62    24    18    1
    63    24    48    1
    64    25     2    1
    65    25     3    1
    66    82    19    1
    67    18    19    1
    68    18    36    1
    69     6     7    1
    70     6    69    1
    71    52    46    1
    72    52    43    1
    73    61     3    1
    74    40    51    2
    75    46     9    1
    76     2    60    1
    77     2    58    1
    78    19    14    1
    79    19    49    1
    80    48    14    1
    81    36    87    1
    82     7    70    1
    83     7    71    1
    84     3    62    1
    85     3    63    1
    86    51    49    1
    87    51    39    1
    88    44    90    1
    89    14     9    1
    90    14    80    1
    91     9    74    1
    92     9    75    1
