@<TRIPOS>MOLECULE
OJOLFAIGOXZBCI-UHFFFAOYSA-M	6044995	-740.0862171398855
 10 9 0 0 0
SMALL
MULLIKEN NwChem

@<TRIPOS>ATOM
      1 C           0.9660   -0.9639   -0.4527 C.3     1  LIG1       -0.4800000000000004
      2 C          -0.0128   -0.6297    0.6813 C.2     1  LIG1       0.3700000000000001
      3 C          -0.3258    0.8920    0.9118 C.2     1  LIG1       0.5099999999999998
      4 O          -0.4859   -1.5230    1.3627 O.2     1  LIG1      -0.4900000000000002
      5 O          -0.4387    1.2504    2.0920 O.co2   1  LIG1      -0.6099999999999994
      6 O          -0.4032    1.5911   -0.1526 O.co2   1  LIG1      -0.6300000000000008
      7 S           0.2108   -0.5792   -2.1054 S.3     1  LIG1      -0.23999999999999844
      8 H           1.2099   -2.0290   -0.4109 H       1  LIG1       0.19999999999999996
      9 H           1.8801   -0.3687   -0.3395 H       1  LIG1       0.20999999999999996
     10 H          -0.2325    0.6294   -1.5295 H       1  LIG1       0.17000000000000004
@<TRIPOS>BOND
     1     7    10    1
     2     7     1    1
     3     1     8    1
     4     1     9    1
     5     1     2    1
     6     6     3   ar
     7     2     3    1
     8     2     4    2
     9     3     5   ar
