@<TRIPOS>MOLECULE
OKKJLVBELUTLKV-UHFFFAOYSA-N	6044996	-115.69119197635364
 6 5 0 0 0
SMALL
MULLIKEN NwChem

@<TRIPOS>ATOM
      1 C           0.2044   -0.3960   -0.4845 C.3     1  LIG1       -0.21999999999999975
      2 O          -0.2842    0.5121    0.4915 O.3     1  LIG1      -0.6600000000000001
      3 H          -0.1732   -0.0513   -1.4515 H       1  LIG1       0.16000000000000003
      4 H          -0.1539   -1.4261   -0.3262 H       1  LIG1       0.15000000000000002
      5 H           1.3049   -0.4161   -0.5359 H       1  LIG1          0.14
      6 H           0.0431    0.2203    1.3554 H       1  LIG1       0.43000000000000005
@<TRIPOS>BOND
     1     3     1    1
     2     5     1    1
     3     1     4    1
     4     1     2    1
     5     2     6    1
