@<TRIPOS>MOLECULE
OKYHYXLCTGGOLM-SCSAIBSYSA-L	6044998	-949.5968718029944
 18 17 0 0 0
SMALL
MULLIKEN NwChem

@<TRIPOS>ATOM
      1 C           0.7997    1.4406    1.7438 C.3     1  LIG1      -0.5999999999999996
      2 C          -1.4750   -0.4212    0.9225 C.3     1  LIG1       -0.040000000000000036
      3 C           1.0614   -0.0480    1.6864 C.2     1  LIG1       0.46999999999999975
      4 C          -0.1307   -1.0229    1.4612 C.3     1  LIG1       0.03000000000000025
      5 O           2.1672   -0.5061    1.9566 O.2     1  LIG1      -0.5500000000000007
      6 O           0.2720   -2.1270    0.6959 O.3     1  LIG1      -0.7100000000000009
      7 O           0.8420   -0.2783   -1.0333 O.3     1  LIG1      -0.8000000000000007
      8 O          -0.9836    0.1808   -2.8482 O.2     1  LIG1      -0.7400000000000002
      9 O          -0.5725    1.8794   -0.8998 O.3     1  LIG1      -0.7699999999999996
     10 O          -1.6422   -0.4463   -0.4598 O.3     1  LIG1      -0.6300000000000008
     11 P          -0.4883    0.4392   -1.4374 P.3     1  LIG1       1.0099999999999998
     12 H           0.0476    1.6660    2.5175 H       1  LIG1       0.17000000000000004
     13 H           0.3847    1.7822    0.7687 H       1  LIG1       0.22999999999999998
     14 H           1.7365    1.9522    1.9967 H       1  LIG1          0.14
     15 H          -2.2763   -1.0554    1.3497 H       1  LIG1          0.12
     16 H          -1.6206    0.5943    1.3385 H       1  LIG1       0.10999999999999999
     17 H          -0.3473   -1.3863    2.4894 H       1  LIG1       0.15000000000000002
     18 H           0.5354   -1.6356   -0.1585 H       1  LIG1       0.42000000000000004
@<TRIPOS>BOND
     1     8    11    2
     2    11     7    1
     3    11     9    1
     4    11    10    1
     5    10     2    1
     6    18     6    1
     7     6     4    1
     8    13     1    1
     9     2    16    1
    10     2    15    1
    11     2     4    1
    12     4     3    1
    13     4    17    1
    14     3     1    1
    15     3     5    2
    16     1    14    1
    17     1    12    1
