@<TRIPOS>MOLECULE
OKZYCXHTTZZYSK-ZCFIWIBFSA-K	11085295	-1102.9439848558366
 24 23 0 0 0
SMALL
MULLIKEN NwChem

@<TRIPOS>ATOM
      1 C          -2.4154   -1.2856   -1.4382 C.3     1  LIG1      -0.45999999999999996
      2 C          -0.6734    0.4673   -0.8915 C.3     1  LIG1       -0.3200000000000003
      3 C           0.6229    0.7931   -0.1204 C.3     1  LIG1       -0.03000000000000025
      4 C          -2.3907   -0.2899    0.8775 C.3     1  LIG1       -0.3899999999999997
      5 C          -3.6888    0.5786    0.6763 C.2     1  LIG1       0.5199999999999996
      6 C          -1.5112   -0.7123   -0.3320 C.3     1  LIG1       0.3700000000000001
      7 O          -3.7962    1.2780   -0.3725 O.co2   1  LIG1      -0.6600000000000001
      8 O          -4.5175    0.5096    1.6292 O.co2   1  LIG1      -0.6899999999999995
      9 O          -0.6511   -1.7865    0.0924 O.3     1  LIG1      -0.7599999999999998
     10 O           3.4913    1.2640   -1.0359 O.2     1  LIG1      -0.7899999999999991
     11 O           3.9495   -1.1937   -0.2839 O.3     1  LIG1      -0.7699999999999996
     12 O           3.3283    0.6291    1.4802 O.3     1  LIG1      -0.7899999999999991
     13 O           1.5281   -0.2752   -0.2302 O.3     1  LIG1      -0.6600000000000001
     14 P           3.3014    0.1607    0.0190 P.3     1  LIG1       0.9000000000000004
     15 H          -2.9880   -2.1382   -1.0415 H       1  LIG1          0.13
     16 H          -3.1150   -0.5180   -1.7822 H       1  LIG1          0.14
     17 H          -1.7977   -1.6510   -2.2705 H       1  LIG1          0.13
     18 H          -1.3429    1.3361   -0.9386 H       1  LIG1          0.14
     19 H          -0.3625    0.2240   -1.9194 H       1  LIG1          0.12
     20 H           0.3870    1.0200    0.9397 H       1  LIG1       0.10999999999999999
     21 H           1.0737    1.7034   -0.5480 H       1  LIG1          0.12
     22 H          -1.7461    0.2411    1.5941 H       1  LIG1          0.14
     23 H          -2.6943   -1.2125    1.3912 H       1  LIG1       0.10999999999999999
     24 H           0.2814   -1.4347    0.0607 H       1  LIG1       0.42000000000000004
@<TRIPOS>BOND
     1    17     1    1
     2    19     2    1
     3    16     1    1
     4     1    15    1
     5     1     6    1
     6    10    14    2
     7    18     2    1
     8     2     6    1
     9     2     3    1
    10    21     3    1
    11     7     5   ar
    12     6     9    1
    13     6     4    1
    14    11    14    1
    15    13     3    1
    16    13    14    1
    17     3    20    1
    18    14    12    1
    19    24     9    1
    20     5     4    1
    21     5     8   ar
    22     4    23    1
    23     4    22    1
