@<TRIPOS>MOLECULE
OLXZPDWKRNYJJZ-RRKCRQDMSA-N	6045000	-888.1359906421815
 31 33 0 0 0
SMALL
MULLIKEN NwChem

@<TRIPOS>ATOM
      1 C2*         0.8742   -1.7422    1.3130 C.3     1    A1       -0.33000000000000007
      2 C5*         3.2309   -1.7211   -0.9570 C.3     1    A1       -0.040000000000000036
      3 C2         -2.5616    2.4800    1.3028 C.ar    1    A1       0.16000000000000014
      4 C8         -0.4612   -0.3365   -1.2731 C.ar    1    A1       0.20999999999999996
      5 C3*         2.3746   -2.0097    1.4719 C.3     1    A1       0.09999999999999964
      6 C4*         2.9839   -1.0774    0.4018 C.3     1    A1       0.09999999999999964
      7 C1*         0.8273   -0.2556    0.9206 C.3     1    A1       0.2599999999999998
      8 C5         -2.0327    1.0415   -0.8772 C.ar    1    A1       0.17999999999999972
      9 C6         -3.1442    1.9076   -0.8555 C.ar    1    A1       0.4800000000000004
     10 C4         -1.2681    1.0013    0.2933 C.ar    1    A1       0.5300000000000002
     11 N6         -3.9952    2.0179   -1.9104 N.pl3   1    A1        -0.79
     12 N1         -3.3882    2.6289    0.2543 N.ar    1    A1      -0.5499999999999998
     13 N3         -1.4857    1.6936    1.4188 N.ar    1    A1        -0.54
     14 N7         -1.5100    0.2019   -1.8487 N.ar    1    A1      -0.5700000000000003
     15 N9         -0.2594    0.0953    0.0286 N.ar    1    A1      -0.5099999999999998
     16 O5*         2.0670   -2.4393   -1.3672 O.3     1    A1      -0.6400000000000006
     17 O3*         2.8619   -1.7103    2.7755 O.3     1    A1      -0.6799999999999997
     18 O4*         2.0768    0.0318    0.2892 O.3     1    A1      -0.5399999999999991
     19 H2*1        0.4721   -2.3504    0.5001 H       1    A1       0.18999999999999995
     20 H2*2        0.3203   -1.9503    2.2313 H       1    A1       0.18000000000000005
     21 H5*1        3.4822   -0.9257   -1.6733 H       1    A1       0.15000000000000002
     22 H5*2        4.0967   -2.3964   -0.8683 H       1    A1       0.15000000000000002
     23 H2         -2.8038    3.0850    2.1740 H       1    A1       0.17000000000000004
     24 H8          0.2234   -1.0433   -1.7217 H       1    A1       0.20999999999999996
     25 H3*         2.6308   -3.0569    1.2973 H       1    A1       0.17000000000000004
     26 H4*         3.9446   -0.6896    0.7632 H       1    A1       0.17000000000000004
     27 H1*         0.6992    0.3984    1.7907 H       1    A1       0.18000000000000005
     28 H61        -3.7026    1.6452   -2.8017 H       1    A1          0.38
     29 H62        -4.6454    2.7903   -1.9037 H       1    A1          0.37
     30 H5*         2.2355   -2.8182   -2.2428 H       1    A1       0.43999999999999995
     31 H3*         2.6800   -0.7742    2.9592 H       1    A1       0.43000000000000005
@<TRIPOS>BOND
     1    28    11    1
     2    30    16    1
     3    11    29    1
     4    11     9    1
     5    14     4   ar
     6    14     8   ar
     7    24     4    1
     8    21     2    1
     9    16     2    1
    10     4    15   ar
    11     2    22    1
    12     2     6    1
    13     8     9   ar
    14     8    10   ar
    15     9    12   ar
    16    15    10   ar
    17    15     7    1
    18    12     3   ar
    19    18     6    1
    20    18     7    1
    21    10    13   ar
    22     6    26    1
    23     6     5    1
    24    19     1    1
    25     7     1    1
    26     7    27    1
    27    25     5    1
    28     3    13   ar
    29     3    23    1
    30     1     5    1
    31     1    20    1
    32     5    17    1
    33    17    31    1
