@<TRIPOS>MOLECULE
ONIBWKKTOPOVIA-BYPYZUCNSA-N	6045003	-401.0521756336554
 17 17 0 0 0
SMALL
MULLIKEN NwChem

@<TRIPOS>ATOM
      1 CG         -1.5438   -1.2544    0.1671 C.3     1  PRO1      -0.29000000000000004
      2 CB         -0.1656   -1.2235    0.8417 C.3     1  PRO1      -0.2999999999999998
      3 CD         -2.1208    0.1048    0.5908 C.3     1  PRO1      -0.13999999999999968
      4 CA          0.2647    0.2622    0.6619 C.3     1  PRO1       -0.03000000000000025
      5 C           1.0715    0.4315   -0.6194 C.2     1  PRO1       0.5800000000000001
      6 N          -0.9776    1.0442    0.6193 N.3     1  PRO1      -0.6100000000000003
      7 O           0.6906    0.9933   -1.6249 O.2     1  PRO1      -0.5099999999999998
      8 OXT         2.2972   -0.1351   -0.5164 O.3     1  PRO1      -0.5800000000000001
      9 HG1        -1.4299   -1.2949   -0.9237 H       1  PRO1       0.15000000000000002
     10 HG2        -2.1563   -2.1066    0.4796 H       1  PRO1       0.15000000000000002
     11 HB1        -0.2604   -1.4409    1.9116 H       1  PRO1       0.17000000000000004
     12 HB2         0.5616   -1.9227    0.4211 H       1  PRO1       0.17000000000000004
     13 HD1        -2.9044    0.4752   -0.0780 H       1  PRO1       0.16000000000000003
     14 HD2        -2.5582    0.0288    1.5965 H       1  PRO1          0.14
     15 HA          0.9154    0.5733    1.4896 H       1  PRO1       0.18000000000000005
     16 H          -0.9700    1.6047   -0.2292 H       1  PRO1       0.32999999999999996
     17 HXT         2.7413    0.0081   -1.3733 H       1  PRO1       0.44999999999999996
@<TRIPOS>BOND
     1     7     5    2
     2    17     8    1
     3     9     1    1
     4     5     8    1
     5     5     4    1
     6    16     6    1
     7    13     3    1
     8     1    10    1
     9     1     3    1
    10     1     2    1
    11    12     2    1
    12     3     6    1
    13     3    14    1
    14     6     4    1
    15     4     2    1
    16     4    15    1
    17     2    11    1
