@<TRIPOS>MOLECULE
ONQRKEUAIJMULO-COENLIPYSA-N	6045004	-1247.8705622348841
 81 85 0 0 0
SMALL
MULLIKEN NwChem

@<TRIPOS>ATOM
      1 C           6.3702    5.2575    0.8664 C.3     1  LIG1      -0.5300000000000002
      2 C           7.2365    3.8037   -1.0233 C.3     1  LIG1      -0.5199999999999996
      3 C           3.9912    0.0088    1.9904 C.3     1  LIG1      -0.4800000000000004
      4 C          -6.1647   -1.7543   -1.9485 C.3     1  LIG1      -0.46999999999999975
      5 C          -5.6406   -2.7574    0.2772 C.3     1  LIG1      -0.4800000000000004
      6 C           1.8840   -0.3359   -0.6056 C.3     1  LIG1         -0.5
      7 C          -0.1119    1.4896   -1.4202 C.3     1  LIG1      -0.4900000000000002
      8 C           5.4583    2.6453    2.2832 C.3     1  LIG1      -0.3200000000000003
      9 C           6.1465    2.7446    0.9468 C.2     1  LIG1      -0.1900000000000004
     10 C           3.9216    2.5278    2.1777 C.3     1  LIG1      -0.2599999999999998
     11 C          -4.0109   -0.2136   -0.1294 C.3     1  LIG1      -0.28000000000000025
     12 C          -2.8329    0.7461   -0.3358 C.3     1  LIG1      -0.2999999999999998
     13 C           1.1627    2.6311    1.1656 C.3     1  LIG1      -0.2999999999999998
     14 C          -3.5664   -4.4949   -0.9991 C.3     1  LIG1      -0.3099999999999996
     15 C          -0.3022    2.2582    0.9491 C.3     1  LIG1      -0.29000000000000004
     16 C          -2.5798   -3.6002   -0.2124 C.3     1  LIG1      -0.3099999999999996
     17 C           0.5973   -0.9481    1.4654 C.3     1  LIG1      -0.3099999999999996
     18 C          -0.3029   -1.9858    0.7670 C.3     1  LIG1      -0.3099999999999996
     19 C          -1.3167   -1.7843   -1.6311 C.3     1  LIG1      -0.3700000000000001
     20 C           6.5475    3.8609    0.3195 C.2     1  LIG1      0.17999999999999972
     21 C           3.3830    1.2972    1.4094 C.3     1  LIG1      -0.07000000000000028
     22 C           1.8329    1.2771    1.4619 C.3     1  LIG1      -0.09999999999999964
     23 C          -3.8253   -1.4426   -1.0301 C.3     1  LIG1      -0.1200000000000001
     24 C          -1.5399    0.1338    0.2217 C.3     1  LIG1      -0.1200000000000001
     25 C          -4.5821   -3.6950   -1.8308 C.3     1  LIG1       0.1299999999999999
     26 C          -5.0512   -2.4066   -1.1047 C.3     1  LIG1      0.08999999999999986
     27 C           1.0499    0.2237    0.5627 C.3     1  LIG1      0.11000000000000032
     28 C          -0.2557    1.0061    0.0407 C.3     1  LIG1      0.09999999999999964
     29 C          -2.4773   -2.1631   -0.7238 C.3     1  LIG1      0.040000000000000036
     30 C          -1.3156   -1.3272   -0.1859 C.3     1  LIG1      0.08999999999999986
     31 O          -4.0515   -3.3963   -3.1295 O.3     1  LIG1      -0.6999999999999993
     32 H           7.3430    5.7498    1.0075 H       1  LIG1       0.16000000000000003
     33 H           5.8350    5.2837    1.8176 H       1  LIG1       0.16000000000000003
     34 H           5.8095    5.8775    0.1518 H       1  LIG1       0.16000000000000003
     35 H           7.3503    2.7771   -1.3836 H       1  LIG1       0.16000000000000003
     36 H           6.6801    4.3731   -1.7809 H       1  LIG1       0.16000000000000003
     37 H           8.2371    4.2574   -0.9670 H       1  LIG1       0.16000000000000003
     38 H           3.7938   -0.0540    3.0696 H       1  LIG1          0.14
     39 H           3.5798   -0.8910    1.5305 H       1  LIG1       0.16000000000000003
     40 H           5.0761   -0.0252    1.8481 H       1  LIG1       0.15000000000000002
     41 H          -7.0462   -2.4063   -1.9865 H       1  LIG1          0.14
     42 H          -6.4835   -0.7957   -1.5236 H       1  LIG1       0.15000000000000002
     43 H          -5.8243   -1.5899   -2.9742 H       1  LIG1          0.14
     44 H          -4.8940   -3.1120    0.9919 H       1  LIG1       0.16000000000000003
     45 H          -6.1235   -1.8805    0.7202 H       1  LIG1       0.15000000000000002
     46 H          -6.4037   -3.5393    0.1767 H       1  LIG1       0.15000000000000002
     47 H           2.6936   -0.9785   -0.2487 H       1  LIG1          0.14
     48 H           1.2614   -0.9421   -1.2670 H       1  LIG1       0.16000000000000003
     49 H           2.3385    0.4529   -1.2119 H       1  LIG1       0.15000000000000002
     50 H           0.7954    2.0855   -1.5578 H       1  LIG1       0.15000000000000002
     51 H          -0.0756    0.6682   -2.1385 H       1  LIG1       0.15000000000000002
     52 H          -0.9567    2.1312   -1.6916 H       1  LIG1          0.14
     53 H           5.8615    1.7844    2.8310 H       1  LIG1          0.14
     54 H           5.6887    3.5194    2.9014 H       1  LIG1          0.14
     55 H           6.3100    1.7951    0.4343 H       1  LIG1          0.12
     56 H           3.5010    2.5157    3.1951 H       1  LIG1          0.12
     57 H           3.5587    3.4434    1.6984 H       1  LIG1          0.14
     58 H          -4.0653   -0.5127    0.9273 H       1  LIG1          0.13
     59 H          -4.9533    0.2936   -0.3671 H       1  LIG1          0.13
     60 H          -2.7476    0.9668   -1.4075 H       1  LIG1          0.14
     61 H          -3.0179    1.7051    0.1638 H       1  LIG1          0.13
     62 H           1.5893    3.0854    0.2612 H       1  LIG1          0.13
     63 H           1.2966    3.3519    1.9775 H       1  LIG1          0.14
     64 H          -3.0280   -5.1503   -1.6937 H       1  LIG1          0.14
     65 H          -4.0992   -5.1488   -0.3018 H       1  LIG1       0.15000000000000002
     66 H          -0.8986    3.0687    0.5188 H       1  LIG1          0.13
     67 H          -0.7540    2.0038    1.9175 H       1  LIG1          0.13
     68 H          -1.5901   -4.0643   -0.2111 H       1  LIG1       0.15000000000000002
     69 H          -2.8836   -3.5598    0.8408 H       1  LIG1       0.15000000000000002
     70 H           1.4756   -1.4546    1.8833 H       1  LIG1          0.13
     71 H           0.0624   -0.5296    2.3265 H       1  LIG1          0.14
     72 H           0.3169   -2.7107    0.2294 H       1  LIG1          0.14
     73 H          -0.8292   -2.5508    1.5464 H       1  LIG1          0.14
     74 H          -1.5118   -1.0584   -2.4180 H       1  LIG1       0.16000000000000003
     75 H          -0.5926   -2.5492   -1.9075 H       1  LIG1       0.15000000000000002
     76 H           3.6983    1.3967    0.3617 H       1  LIG1          0.12
     77 H           1.5775    1.0407    2.5070 H       1  LIG1       0.10999999999999999
     78 H          -3.7369   -1.0417   -2.0477 H       1  LIG1          0.13
     79 H          -1.7202    0.0865    1.3076 H       1  LIG1          0.12
     80 H          -5.4581   -4.3223   -2.0358 H       1  LIG1          0.13
     81 H          -3.1680   -3.0187   -2.9970 H       1  LIG1       0.43000000000000005
@<TRIPOS>BOND
     1    31    81    1
     2    31    25    1
     3    43     4    1
     4    74    19    1
     5    51     7    1
     6    78    23    1
     7    80    25    1
     8    41     4    1
     9     4    42    1
    10     4    26    1
    11    75    19    1
    12    25    26    1
    13    25    14    1
    14    36     2    1
    15    64    14    1
    16    52     7    1
    17    19    29    1
    18    19    30    1
    19    50     7    1
    20     7    28    1
    21    60    12    1
    22    35     2    1
    23    48     6    1
    24    49     6    1
    25    26    23    1
    26    26     5    1
    27    23    29    1
    28    23    11    1
    29     2    37    1
    30     2    20    1
    31    14    65    1
    32    14    16    1
    33    29    16    1
    34    29    30    1
    35     6    47    1
    36     6    27    1
    37    59    11    1
    38    12    11    1
    39    12    61    1
    40    12    24    1
    41    16    68    1
    42    16    69    1
    43    30    24    1
    44    30    18    1
    45    11    58    1
    46    28    24    1
    47    28    27    1
    48    28    15    1
    49    34     1    1
    50    46     5    1
    51    24    79    1
    52    72    18    1
    53    62    13    1
    54     5    45    1
    55     5    44    1
    56    20     1    1
    57    20     9    2
    58    76    21    1
    59    55     9    1
    60    66    15    1
    61    27    22    1
    62    27    17    1
    63    18    17    1
    64    18    73    1
    65     1    32    1
    66     1    33    1
    67     9     8    1
    68    15    13    1
    69    15    67    1
    70    13    22    1
    71    13    63    1
    72    21    22    1
    73    21     3    1
    74    21    10    1
    75    22    77    1
    76    17    70    1
    77    17    71    1
    78    39     3    1
    79    57    10    1
    80    40     3    1
    81     3    38    1
    82    10     8    1
    83    10    56    1
    84     8    53    1
    85     8    54    1
