@<TRIPOS>MOLECULE
OOJZCXFXPZGUBJ-UHFFFAOYSA-N	6045005	-478.3805932575604
 21 21 0 0 0
SMALL
MULLIKEN NwChem

@<TRIPOS>ATOM
      1 C           0.3475    3.0866   -2.1892 C.2     1  LIG1      -0.4800000000000004
      2 C          -1.4927    1.3500   -1.2788 C.3     1  LIG1      -0.3899999999999997
      3 C           0.3973    0.6371    0.4242 C.3     1  LIG1      -0.28000000000000025
      4 C          -0.2453    2.0268   -1.6661 C.2     1  LIG1      0.20000000000000018
      5 C          -0.1114    0.7214   -1.0041 C.3     1  LIG1      -0.16000000000000014
      6 CA         -0.1735   -0.5479    1.2374 C.3     1  LIG1       -0.04999999999999982
      7 C           0.3351   -1.8637    0.6479 C.2     1  LIG1       0.5800000000000001
      8 N           0.1988   -0.3896    2.6419 N.3     1  LIG1        -0.75
      9 OXT         1.3442   -2.4315    1.0077 O.2     1  LIG1      -0.5199999999999996
     10 O          -0.4498   -2.3307   -0.3550 O.3     1  LIG1      -0.5800000000000001
     11 H          -0.2257    3.9240   -2.5809 H       1  LIG1       0.15000000000000002
     12 H           1.4313    3.1593   -2.2487 H       1  LIG1       0.15000000000000002
     13 H          -2.0508    1.7350   -0.4247 H       1  LIG1       0.18000000000000005
     14 H          -2.1178    0.8985   -2.0479 H       1  LIG1       0.18000000000000005
     15 H           1.4945    0.5741    0.4308 H       1  LIG1       0.16000000000000003
     16 H           0.1299    1.5483    0.9699 H       1  LIG1       0.16000000000000003
     17 H           0.1435   -0.1289   -1.6367 H       1  LIG1       0.17000000000000004
     18 HA         -1.2654   -0.5289    1.1532 H       1  LIG1       0.17000000000000004
     19 H1         -0.2442   -1.1230    3.1947 H       1  LIG1       0.32999999999999996
     20 H2          1.2012   -0.5648    2.7242 H       1  LIG1       0.31999999999999995
     21 H          -0.0218   -3.1449   -0.6833 H       1  LIG1       0.43999999999999995
@<TRIPOS>BOND
     1    11     1    1
     2    12     1    1
     3     1     4    2
     4    14     2    1
     5     4     2    1
     6     4     5    1
     7    17     5    1
     8     2     5    1
     9     2    13    1
    10     5     3    1
    11    21    10    1
    12    10     7    1
    13     3    15    1
    14     3    16    1
    15     3     6    1
    16     7     9    2
    17     7     6    1
    18    18     6    1
    19     6     8    1
    20     8    20    1
    21     8    19    1
