@<TRIPOS>MOLECULE
OPTASPLRGRRNAP-UHFFFAOYSA-N	6045009	-394.8441137343738
 13 13 0 0 0
SMALL
MULLIKEN NwChem

@<TRIPOS>ATOM
      1 C          -1.6478    0.2818    0.0454 C.2     1  LIG1       -0.20999999999999996
      2 C          -0.9547    1.4512    0.1087 C.3     1  LIG1       0.019999999999999574
      3 C          -0.9333   -0.9785   -0.0218 C.2     1  LIG1       0.4900000000000002
      4 C           1.0630    0.4421    0.0550 C.2     1  LIG1       0.7400000000000002
      5 N          -1.3350   -2.1967   -0.0876 N.pl3   1  LIG1        -0.75
      6 N           0.4172    1.5646    0.1155 N.2     1  LIG1      -0.5300000000000002
      7 N           0.4718   -0.7843   -0.0106 N.pl3   1  LIG1      -0.6600000000000001
      8 O           2.4098    0.4954    0.0569 O.2     1  LIG1      -0.6099999999999994
      9 H          -2.7318    0.2659    0.0430 H       1  LIG1       0.17000000000000004
     10 H          -1.4841    2.3998    0.1591 H       1  LIG1       0.18000000000000005
     11 H          -2.3552   -2.2292   -0.0895 H       1  LIG1       0.31000000000000005
     12 H           1.0060   -1.6459   -0.0571 H       1  LIG1          0.39
     13 H           2.7979   -0.3923    0.0110 H       1  LIG1           0.47
@<TRIPOS>BOND
     1    11     5    1
     2     5     3    1
     3    12     7    1
     4     3     7    1
     5     3     1    2
     6     7     4    1
     7    13     8    1
     8     9     1    1
     9     1     2    1
    10     4     8    1
    11     4     6    2
    12     2     6    1
    13     2    10    1
