@<TRIPOS>MOLECULE
ORZKEIGPXNMCHC-NUESBDPTSA-N	6045011	-1244.532729165107
 76 79 0 0 0
SMALL
MULLIKEN NwChem

@<TRIPOS>ATOM
      1 C          -6.8205    4.9319   -0.1448 C.3     1  LIG1      -0.5300000000000002
      2 C          -7.6739    2.5478   -0.0175 C.3     1  LIG1      -0.5199999999999996
      3 C          -1.9733    2.5128   -3.2415 C.3     1  LIG1      -0.4800000000000004
      4 C          -1.7066   -0.4815   -1.6993 C.3     1  LIG1         -0.5
      5 C           4.0651   -0.4295    0.2704 C.3     1  LIG1      -0.4900000000000002
      6 C          -4.7021    3.9134   -2.2019 C.3     1  LIG1      -0.3200000000000003
      7 C          -5.7881    3.0946   -1.5464 C.2     1  LIG1      -0.1900000000000004
      8 C          -3.3290    3.7162   -1.5166 C.3     1  LIG1      -0.2699999999999996
      9 C           0.8992   -0.9509    2.2798 C.3     1  LIG1      -0.33999999999999986
     10 C           2.2923   -1.4807    2.6366 C.3     1  LIG1      -0.29000000000000004
     11 C          -2.2015    1.8647    0.6609 C.3     1  LIG1      -0.29000000000000004
     12 C          -1.0763    1.1962    1.4488 C.3     1  LIG1      -0.28000000000000025
     13 C           1.4233   -0.3992   -1.5575 C.3     1  LIG1      -0.34999999999999964
     14 C           4.5679   -3.4221   -0.5872 C.3     1  LIG1      -0.2999999999999998
     15 C           0.4831    0.8009   -1.6512 C.3     1  LIG1      -0.29000000000000004
     16 C           3.3548   -2.5419   -0.9373 C.3     1  LIG1      -0.3099999999999996
     17 C           5.2412   -2.6053    2.4996 C.3     1  LIG1       -0.04999999999999982
     18 C          -6.6900    3.5103   -0.6421 C.2     1  LIG1      0.17999999999999972
     19 C          -2.6376    2.3710   -1.8600 C.3     1  LIG1      -0.07000000000000028
     20 C           0.7287   -0.5620    0.8226 C.2     1  LIG1      0.08999999999999986
     21 C           4.0001   -3.2803    1.8891 C.3     1  LIG1       -0.1299999999999999
     22 C          -1.6281    1.9488   -0.7670 C.3     1  LIG1      -0.09999999999999964
     23 C          -0.6295    0.0474    0.5166 C.3     1  LIG1      -0.17999999999999972
     24 C           2.8162   -2.3615    1.5015 C.3     1  LIG1      -0.1299999999999999
     25 C           1.6492   -0.8335   -0.1217 C.2     1  LIG1      0.07000000000000028
     26 C           4.3732   -4.2110    0.7140 C.3     1  LIG1       0.1299999999999999
     27 C          -0.8682    0.5723   -0.9507 C.3     1  LIG1      0.1200000000000001
     28 C           2.9826   -1.5356    0.1894 C.3     1  LIG1      0.04999999999999982
     29 O           6.1725   -3.5670    2.9939 O.3     1  LIG1      -0.6699999999999999
     30 O           3.4037   -5.2551    0.5539 O.3     1  LIG1      -0.6899999999999995
     31 H          -7.8462    5.2977   -0.2920 H       1  LIG1       0.16000000000000003
     32 H          -6.1401    5.6317   -0.6372 H       1  LIG1       0.16000000000000003
     33 H          -6.6232    4.9834    0.9362 H       1  LIG1       0.16000000000000003
     34 H          -7.5887    1.5386   -0.4316 H       1  LIG1       0.16000000000000003
     35 H          -7.5205    2.4843    1.0696 H       1  LIG1       0.16000000000000003
     36 H          -8.7098    2.8891   -0.1628 H       1  LIG1       0.16000000000000003
     37 H          -2.6708    2.9344   -3.9749 H       1  LIG1          0.14
     38 H          -1.6137    1.5644   -3.6455 H       1  LIG1       0.16000000000000003
     39 H          -1.1131    3.1914   -3.1776 H       1  LIG1          0.14
     40 H          -1.2246   -1.4647   -1.6455 H       1  LIG1       0.15000000000000002
     41 H          -2.7005   -0.5831   -1.2474 H       1  LIG1       0.15000000000000002
     42 H          -1.8449   -0.2405   -2.7576 H       1  LIG1       0.15000000000000002
     43 H           3.8963    0.2313    1.1260 H       1  LIG1       0.15000000000000002
     44 H           5.0779   -0.8312    0.3413 H       1  LIG1       0.16000000000000003
     45 H           4.0365    0.1950   -0.6301 H       1  LIG1       0.15000000000000002
     46 H          -4.6319    3.6391   -3.2633 H       1  LIG1          0.14
     47 H          -4.9564    4.9784   -2.1855 H       1  LIG1       0.15000000000000002
     48 H          -5.7954    2.0354   -1.8092 H       1  LIG1          0.12
     49 H          -2.6542    4.5371   -1.8015 H       1  LIG1          0.13
     50 H          -3.4904    3.8116   -0.4396 H       1  LIG1          0.14
     51 H           0.6554   -0.0944    2.9220 H       1  LIG1       0.15000000000000002
     52 H           0.1441   -1.7175    2.5182 H       1  LIG1          0.14
     53 H           2.2442   -2.0504    3.5726 H       1  LIG1          0.13
     54 H           2.9747   -0.6430    2.8250 H       1  LIG1       0.15000000000000002
     55 H          -2.4830    2.8359    1.0799 H       1  LIG1          0.14
     56 H          -3.1023    1.2349    0.6708 H       1  LIG1          0.13
     57 H          -1.3952    0.8464    2.4356 H       1  LIG1          0.14
     58 H          -0.2525    1.9087    1.6033 H       1  LIG1          0.13
     59 H           1.0427   -1.2393   -2.1590 H       1  LIG1       0.15000000000000002
     60 H           2.3786   -0.1263   -2.0245 H       1  LIG1       0.15000000000000002
     61 H           4.7566   -4.1331   -1.3986 H       1  LIG1          0.14
     62 H           5.4683   -2.8013   -0.5005 H       1  LIG1       0.15000000000000002
     63 H           0.3238    1.0710   -2.7002 H       1  LIG1          0.13
     64 H           0.9849    1.6538   -1.1759 H       1  LIG1          0.13
     65 H           3.5568   -2.0153   -1.8757 H       1  LIG1       0.15000000000000002
     66 H           2.4804   -3.1805   -1.1368 H       1  LIG1          0.14
     67 H           5.8057   -2.0277    1.7642 H       1  LIG1       0.16000000000000003
     68 H           4.9372   -1.9036    3.2931 H       1  LIG1          0.14
     69 H          -3.4174    1.5981   -1.9171 H       1  LIG1          0.13
     70 H           3.6130   -3.9422    2.6810 H       1  LIG1          0.13
     71 H          -0.8533    2.7319   -0.7420 H       1  LIG1       0.10999999999999999
     72 H          -1.3577   -0.7623    0.6861 H       1  LIG1          0.14
     73 H           1.9945   -3.0630    1.2796 H       1  LIG1          0.12
     74 H           5.2978   -4.7378    0.9673 H       1  LIG1          0.13
     75 H           5.6924   -4.1501    3.6054 H       1  LIG1       0.42000000000000004
     76 H           2.5909   -4.8585    0.2041 H       1  LIG1       0.42000000000000004
@<TRIPOS>BOND
     1    37     3    1
     2    38     3    1
     3    46     6    1
     4     3    39    1
     5     3    19    1
     6    42     4    1
     7    63    15    1
     8     6    47    1
     9     6     7    1
    10     6     8    1
    11    59    13    1
    12    60    13    1
    13    69    19    1
    14    65    16    1
    15    19     8    1
    16    19    22    1
    17    48     7    1
    18    49     8    1
    19     4    40    1
    20     4    41    1
    21     4    27    1
    22    15    13    1
    23    15    64    1
    24    15    27    1
    25    13    25    1
    26     7    18    2
    27     8    50    1
    28    61    14    1
    29    66    16    1
    30    27    22    1
    31    27    23    1
    32    16    14    1
    33    16    28    1
    34    22    71    1
    35    22    11    1
    36    18     1    1
    37    18     2    1
    38    32     1    1
    39    45     5    1
    40    14    62    1
    41    14    26    1
    42    34     2    1
    43    31     1    1
    44    36     2    1
    45     1    33    1
    46    25    28    1
    47    25    20    2
    48     2    35    1
    49    28     5    1
    50    28    24    1
    51    76    30    1
    52     5    44    1
    53     5    43    1
    54    23    72    1
    55    23    20    1
    56    23    12    1
    57    30    26    1
    58    11    56    1
    59    11    55    1
    60    11    12    1
    61    26    74    1
    62    26    21    1
    63    20     9    1
    64    73    24    1
    65    12    58    1
    66    12    57    1
    67    24    21    1
    68    24    10    1
    69    67    17    1
    70    21    17    1
    71    21    70    1
    72     9    52    1
    73     9    10    1
    74     9    51    1
    75    17    29    1
    76    17    68    1
    77    10    54    1
    78    10    53    1
    79    29    75    1
