@<TRIPOS>MOLECULE
OSJPPGNTCRNQQC-UWTATZPHSA-K	11085288	-985.0740109100061
 15 14 0 0 0
SMALL
MULLIKEN NwChem

@<TRIPOS>ATOM
      1 C          -0.3362   -0.0357   -0.4289 C.3     1  LIG1       -0.03000000000000025
      2 C          -1.3819   -1.1262   -0.0669 C.3     1  LIG1       0.04999999999999982
      3 C          -2.7260   -1.0406   -0.8758 C.2     1  LIG1           0.5
      4 O          -1.5562   -1.0820    1.3581 O.3     1  LIG1      -0.7200000000000006
      5 O          -3.7706   -0.6461   -0.2903 O.co2   1  LIG1      -0.6799999999999997
      6 O          -2.6150   -1.4043   -2.0873 O.co2   1  LIG1      -0.6999999999999993
      7 O           2.9425    0.5303    1.5880 O.3     1  LIG1      -0.7799999999999994
      8 O           1.3784    2.3907    0.6417 O.3     1  LIG1      -0.7899999999999991
      9 O           2.6678    0.8245   -0.9894 O.2     1  LIG1      -0.8000000000000007
     10 O           0.7300   -0.1597    0.4835 O.3     1  LIG1      -0.6600000000000001
     11 P           2.0857    1.0428    0.4185 P.3     1  LIG1       0.9100000000000001
     12 H          -0.0101   -0.1683   -1.4731 H       1  LIG1       0.09999999999999998
     13 H          -0.8047    0.9624   -0.3453 H       1  LIG1       0.09999999999999998
     14 H          -0.9270   -2.0999   -0.3442 H       1  LIG1       0.09999999999999998
     15 H          -0.6718   -0.7255    1.6128 H       1  LIG1            0.4
@<TRIPOS>BOND
     1     6     3   ar
     2    12     1    1
     3     9    11    2
     4     3     5   ar
     5     3     2    1
     6     1    13    1
     7     1     2    1
     8     1    10    1
     9    14     2    1
    10     2     4    1
    11    11    10    1
    12    11     8    1
    13    11     7    1
    14     4    15    1
