@<TRIPOS>MOLECULE
OTEACGAEDCIMBS-NOTSHUFBSA-I	11169019	-4362.66982932072
 97 99 0 0 0
SMALL
MULLIKEN NwChem

@<TRIPOS>ATOM
      1 C          -0.2639    0.1161    0.1144 C.3     1  LIG1      -0.4900000000000002
      2 C           0.5883   -0.6923   -2.1103 C.3     1  LIG1      -0.4800000000000004
      3 C          16.2756    3.0992    1.3598 C.3     1  LIG1      -0.2599999999999998
      4 C          16.8062    3.8494    0.1349 C.3     1  LIG1       -0.3600000000000003
      5 C           6.3777   -0.6009    0.2823 C.3     1  LIG1       -0.3600000000000003
      6 C           4.8774   -0.7706    0.5926 C.3     1  LIG1       -0.13999999999999968
      7 C           9.1595   -0.1426   -0.0331 C.3     1  LIG1       -0.11000000000000032
      8 C          10.6520   -0.2726    0.2953 C.3     1  LIG1       -0.41000000000000014
      9 C          14.0254    2.2964    0.3766 C.3     1  LIG1       -0.3700000000000001
     10 C          -6.3046   -0.6523   -1.2358 C.3     1  LIG1       -0.08000000000000007
     11 C          -0.0650   -2.3502   -0.3224 C.3     1  LIG1       -0.07000000000000028
     12 C         -12.4222    3.7305    1.2678 C.ar    1  LIG1       0.15000000000000036
     13 C          -8.8986    3.1111   -1.1870 C.ar    1  LIG1       0.21999999999999975
     14 C          15.3438    1.9084    1.0933 C.3     1  LIG1       0.13999999999999968
     15 C          -7.6818   -0.6990   -0.5684 C.3     1  LIG1       0.09999999999999964
     16 C           7.1693    0.3749    1.2069 C.2     1  LIG1       0.4800000000000004
     17 C          18.0230    4.8110    0.4385 C.2     1  LIG1       0.5099999999999998
     18 C          13.0835    1.1007    0.2244 C.2     1  LIG1       0.2699999999999996
     19 C         -10.4644    4.3167   -0.4297 C.ar    1  LIG1       0.1900000000000004
     20 C          -9.8743   -0.0035   -1.4512 C.3     1  LIG1       0.08999999999999986
     21 C          -8.8245   -1.1798   -1.5014 C.3     1  LIG1       0.08999999999999986
     22 C           2.0210   -0.9194   -0.0439 C.3     1  LIG1       0.08000000000000007
     23 C         -11.3646    5.3106   -0.0225 C.ar    1  LIG1       0.4400000000000004
     24 C         -10.6658    3.0309    0.1110 C.ar    1  LIG1       0.5300000000000002
     25 C           3.0831   -1.9316   -0.6294 C.2     1  LIG1       0.4299999999999997
     26 C          -9.3938    0.8268   -0.2352 C.3     1  LIG1          0.25
     27 C           0.5668   -0.9734   -0.5974 C.3     1  LIG1       0.08000000000000007
     28 N         -11.2761    6.6061   -0.5092 N.pl3   1  LIG1      -0.7800000000000002
     29 N           8.4933    0.5358    1.0326 N.am    1  LIG1      -0.6200000000000001
     30 N           4.3353   -1.8609   -0.2148 N.am    1  LIG1      -0.6100000000000003
     31 N         -12.3495    5.0108    0.8372 N.ar    1  LIG1        -0.54
     32 N         -11.6426    2.6957    0.9684 N.ar    1  LIG1        -0.54
     33 N          -9.3463    4.3521   -1.2406 N.ar    1  LIG1      -0.5800000000000001
     34 N          -9.6427    2.2683   -0.3950 N.ar    1  LIG1      -0.5099999999999998
     35 O          16.0575    0.9317    0.3370 O.3     1  LIG1      -0.6999999999999993
     36 O           6.5274    0.9675    2.1091 O.2     1  LIG1      -0.6999999999999993
     37 O          18.1851    5.7392   -0.3960 O.co2   1  LIG1      -0.6899999999999995
     38 O          18.7191    4.5298    1.4513 O.co2   1  LIG1      -0.6699999999999999
     39 O          13.5213    0.0177   -0.1775 O.2     1  LIG1      -0.5099999999999998
     40 O         -11.2238   -0.3363   -1.4094 O.3     1  LIG1      -0.6999999999999993
     41 O           1.9539   -1.0814    1.3922 O.3     1  LIG1      -0.6999999999999993
     42 O           2.6535   -2.8112   -1.4402 O.2     1  LIG1      -0.6899999999999995
     43 O         -10.8146   -1.7385    0.7530 O.3     1  LIG1      -0.7300000000000004
     44 O          -8.7265   -3.1093    1.1902 O.3     1  LIG1        -0.75
     45 O         -10.7294   -4.2368   -0.0554 O.2     1  LIG1      -0.6600000000000001
     46 O          -6.1507   -3.2739    0.2248 O.3     1  LIG1      -0.6899999999999995
     47 O          -5.2430   -4.2693   -2.0682 O.2     1  LIG1      -0.6400000000000006
     48 O          -2.6233   -1.9601    1.4214 O.3     1  LIG1      -0.6999999999999993
     49 O          -2.5709   -4.3618    0.5305 O.2     1  LIG1      -0.6199999999999992
     50 O          -5.9924   -1.8485   -1.9261 O.3     1  LIG1      -0.5600000000000005
     51 O          -1.4556   -2.3581   -0.8028 O.3     1  LIG1      -0.5600000000000005
     52 O          -7.9972    0.6746   -0.1839 O.3     1  LIG1      -0.5500000000000007
     53 O          -9.3346   -2.4661   -1.2296 O.3     1  LIG1      -0.6199999999999992
     54 O          -3.8895   -2.4474   -0.7495 O.3     1  LIG1      -0.6300000000000008
     55 P         -10.0298   -2.9433    0.2237 P.3     1  LIG1       1.0999999999999996
     56 P          -5.4180   -3.1670   -1.0874 P.3     1  LIG1          1.17
     57 P          -2.6430   -2.9456    0.1130 P.3     1  LIG1       1.1899999999999995
     58 S          11.3914    1.3899    0.6674 S.3     1  LIG1      0.08999999999999986
     59 H           0.1873    1.1057   -0.0357 H       1  LIG1       0.15000000000000002
     60 H          -0.3023   -0.0703    1.1932 H       1  LIG1       0.16000000000000003
     61 H          -1.2832    0.1502   -0.2940 H       1  LIG1       0.16000000000000003
     62 H           1.2204   -1.4381   -2.5976 H       1  LIG1       0.15000000000000002
     63 H           1.0015    0.3079   -2.3067 H       1  LIG1          0.14
     64 H          -0.4277   -0.7326   -2.5206 H       1  LIG1          0.14
     65 H          15.7558    3.7959    2.0353 H       1  LIG1          0.13
     66 H          17.1489    2.7356    1.9129 H       1  LIG1          0.13
     67 H          17.1462    3.1098   -0.6043 H       1  LIG1          0.13
     68 H          16.0207    4.4387   -0.3568 H       1  LIG1          0.12
     69 H           6.8280   -1.6051    0.3243 H       1  LIG1          0.13
     70 H           6.4894   -0.2971   -0.7717 H       1  LIG1          0.13
     71 H           4.3829    0.2095    0.4602 H       1  LIG1       0.10999999999999999
     72 H           4.8099   -0.9596    1.6814 H       1  LIG1       0.09999999999999998
     73 H           8.8361   -1.1903   -0.2291 H       1  LIG1          0.12
     74 H           9.0841    0.3610   -1.0270 H       1  LIG1       0.09999999999999998
     75 H          11.2467   -0.7078   -0.5149 H       1  LIG1       0.18999999999999995
     76 H          10.7800   -0.8712    1.2023 H       1  LIG1       0.18000000000000005
     77 H          14.2782    2.6497   -0.6316 H       1  LIG1       0.19999999999999996
     78 H          13.5324    3.1196    0.9047 H       1  LIG1       0.18000000000000005
     79 H          -6.3197    0.1500   -1.9888 H       1  LIG1       0.17000000000000004
     80 H          -5.5354   -0.4035   -0.4932 H       1  LIG1       0.17000000000000004
     81 H           0.4914   -3.1155   -0.8615 H       1  LIG1       0.18000000000000005
     82 H          -0.0384   -2.5577    0.7509 H       1  LIG1       0.16000000000000003
     83 H         -13.2331    3.5261    1.9661 H       1  LIG1       0.17000000000000004
     84 H          -8.0111    2.7384   -1.6777 H       1  LIG1       0.20999999999999996
     85 H          15.0577    1.4767    2.0734 H       1  LIG1          0.12
     86 H          -7.6486   -1.3107    0.3305 H       1  LIG1       0.17000000000000004
     87 H          -9.7136    0.6193   -2.3447 H       1  LIG1       0.16000000000000003
     88 H          -8.4360   -1.2609   -2.5212 H       1  LIG1       0.17000000000000004
     89 H           2.3781    0.1069   -0.2526 H       1  LIG1          0.12
     90 H          -9.9074    0.4901    0.6718 H       1  LIG1       0.18000000000000005
     91 H         -11.6795    7.2957    0.1128 H       1  LIG1          0.37
     92 H         -10.3537    6.8429   -0.8554 H       1  LIG1          0.37
     93 H          15.3686    0.3136    0.0197 H       1  LIG1       0.42000000000000004
     94 H         -11.2964   -0.9284   -0.5940 H       1  LIG1       0.43000000000000005
     95 H           2.7832   -1.5323    1.6157 H       1  LIG1       0.42000000000000004
     96 H          -7.8880   -3.3605    0.7197 H       1  LIG1          0.47
     97 H          -2.4600   -1.0486    1.1298 H       1  LIG1           0.47
@<TRIPOS>BOND
     1    62     2    1
     2    88    21    1
     3    64     2    1
     4    87    20    1
     5    63     2    1
     6     2    27    1
     7    47    56    2
     8    79    10    1
     9    50    10    1
    10    50    56    1
    11    84    13    1
    12    21    20    1
    13    21    53    1
    14    21    15    1
    15    20    40    1
    16    20    26    1
    17    42    25    2
    18    40    94    1
    19    33    13   ar
    20    33    19   ar
    21    10    15    1
    22    10    80    1
    23    53    55    1
    24    13    34   ar
    25    56    54    1
    26    56    46    1
    27    74     7    1
    28    81    11    1
    29    92    28    1
    30    51    11    1
    31    51    57    1
    32    70     5    1
    33    54    57    1
    34    77     9    1
    35    25    30   am
    36    25    22    1
    37    67     4    1
    38    27    11    1
    39    27    22    1
    40    27     1    1
    41    15    52    1
    42    15    86    1
    43    75     8    1
    44    28    23    1
    45    28    91    1
    46    19    23   ar
    47    19    24   ar
    48    37    17   ar
    49    34    26    1
    50    34    24   ar
    51    68     4    1
    52    11    82    1
    53    61     1    1
    54    89    22    1
    55    26    52    1
    56    26    90    1
    57    73     7    1
    58    30     6    1
    59    39    18    2
    60    45    55    2
    61    22    41    1
    62    59     1    1
    63     7     8    1
    64     7    29    1
    65    23    31   ar
    66    93    35    1
    67    24    32   ar
    68    57    49    2
    69    57    48    1
    70     1    60    1
    71     4    17    1
    72     4     3    1
    73    55    43    1
    74    55    44    1
    75    18     9    1
    76    18    58    1
    77     5    69    1
    78     5     6    1
    79     5    16    1
    80     8    58    1
    81     8    76    1
    82    35    14    1
    83     9    78    1
    84     9    14    1
    85    17    38   ar
    86    71     6    1
    87     6    72    1
    88    96    44    1
    89    31    12   ar
    90    32    12   ar
    91    29    16   am
    92    14     3    1
    93    14    85    1
    94    97    48    1
    95    16    36    2
    96    12    83    1
    97     3    66    1
    98     3    65    1
    99    41    95    1
