@<TRIPOS>MOLECULE
OTKJDMGTUTTYMP-ROUUACIJSA-O	6045014	-914.5842749617595
 61 60 0 0 0
SMALL
MULLIKEN NwChem

@<TRIPOS>ATOM
      1 C1         -3.6381    7.6367    3.0100 C.3     1  <1>       -0.45999999999999996
      2 C2         -2.6784    6.6329    3.6589 C.3     1  <1>       -0.2599999999999998
      3 C3         -3.1921    5.1830    3.6500 C.3     1  <1>       -0.2599999999999998
      4 C4         -3.4776    4.5964    2.2560 C.3     1  <1>       -0.2699999999999996
      5 C5         -2.2850    4.6145    1.2837 C.3     1  <1>       -0.2699999999999996
      6 C6         -1.0208    3.8963    1.7878 C.3     1  <1>       -0.2699999999999996
      7 C7         -1.2235    2.4240    2.1856 C.3     1  <1>       -0.2699999999999996
      8 C8         -1.8045    1.5243    1.0808 C.3     1  <1>       -0.2699999999999996
      9 C9         -0.9946    1.4944   -0.2274 C.3     1  <1>       -0.2699999999999996
     10 C10         0.4758    1.0677   -0.0725 C.3     1  <1>       -0.2699999999999996
     11 C11         0.6895   -0.3034    0.5929 C.3     1  <1>       -0.2699999999999996
     12 C12        -0.0268   -1.4789   -0.0948 C.3     1  <1>       -0.2699999999999996
     13 C13         0.3224   -1.6683   -1.5819 C.3     1  <1>       -0.28000000000000025
     14 C14         1.8253   -1.8445   -1.8716 C.3     1  <1>       -0.33000000000000007
     15 C15         2.5292   -2.9875   -1.1162 C.3     1  <1>       -0.3099999999999996
     16 C16         3.3632   -5.0652   -3.3376 C.3     1  <1>        -0.040000000000000036
     17 C17         1.9863   -5.0635   -2.6424 C.3     1  <1>       -0.04999999999999982
     18 C18         1.9509   -4.4069   -1.2401 C.3     1  <1>        0.1299999999999999
     19 N1          0.9563   -4.3952   -3.5521 N.4     1  <1>          -0.75
     20 O1          4.2124   -6.0022   -2.7409 O.3     1  <1>       -0.6699999999999999
     21 O2          2.7224   -5.3263   -0.4700 O.3     1  <1>       -0.6699999999999999
     22 H1         -3.7661    7.4420    1.9389 H       1  <1>        0.15000000000000002
     23 H2         -3.2679    8.6624    3.1158 H       1  <1>           0.14
     24 H3         -4.6303    7.5895    3.4760 H       1  <1>           0.14
     25 H4         -1.7018    6.6856    3.1584 H       1  <1>           0.14
     26 H5         -2.4971    6.9288    4.7006 H       1  <1>           0.13
     27 H6         -2.4651    4.5466    4.1730 H       1  <1>           0.14
     28 H7         -4.1170    5.1318    4.2414 H       1  <1>           0.13
     29 H8         -3.8353    3.5649    2.3790 H       1  <1>           0.14
     30 H9         -4.3090    5.1430    1.7931 H       1  <1>           0.13
     31 H10        -2.6046    4.1702    0.3309 H       1  <1>           0.13
     32 H11        -2.0214    5.6540    1.0497 H       1  <1>           0.13
     33 H12        -0.2459    3.9653    1.0118 H       1  <1>           0.14
     34 H13        -0.6173    4.4340    2.6551 H       1  <1>           0.13
     35 H14        -0.2607    2.0165    2.5241 H       1  <1>           0.13
     36 H15        -1.8885    2.3705    3.0565 H       1  <1>           0.14
     37 H16        -1.9052    0.5039    1.4764 H       1  <1>           0.14
     38 H17        -2.8253    1.8497    0.8447 H       1  <1>           0.14
     39 H18        -1.5022    0.8272   -0.9392 H       1  <1>           0.13
     40 H19        -1.0150    2.4880   -0.6916 H       1  <1>           0.14
     41 H20         0.9535    1.0799   -1.0628 H       1  <1>           0.14
     42 H21         1.0122    1.8192    0.5189 H       1  <1>           0.14
     43 H22         1.7685   -0.5051    0.6501 H       1  <1>           0.14
     44 H23         0.3442   -0.2621    1.6326 H       1  <1>           0.14
     45 H24         0.1910   -2.4036    0.4587 H       1  <1>           0.14
     46 H25        -1.1111   -1.3391   -0.0190 H       1  <1>           0.14
     47 H26        -0.2577   -2.5278   -1.9582 H       1  <1>           0.14
     48 H27        -0.0358   -0.8046   -2.1533 H       1  <1>        0.15000000000000002
     49 H28         2.0021   -1.9278   -2.9598 H       1  <1>        0.16000000000000003
     50 H29         2.3420   -0.9163   -1.6062 H       1  <1>        0.17000000000000004
     51 H30         3.5898   -3.0188   -1.3892 H       1  <1>        0.16000000000000003
     52 H31         2.5055   -2.7469   -0.0458 H       1  <1>        0.17000000000000004
     53 H32         3.2450   -5.3763   -4.3843 H       1  <1>        0.18000000000000005
     54 H33         3.7792   -4.0439   -3.3484 H       1  <1>        0.17000000000000004
     55 H34         1.6574   -6.1012   -2.5391 H       1  <1>        0.21999999999999997
     56 H35         0.9048   -4.4087   -0.8895 H       1  <1>        0.18000000000000005
     57 H36         0.9053   -4.8717   -4.4605 H       1  <1>       0.45999999999999996
     58 H37         0.0173   -4.4045   -3.1364 H       1  <1>       0.45999999999999996
     59 H38         1.1984   -3.4101   -3.7190 H       1  <1>       0.43999999999999995
     60 H39         4.2254   -5.8362   -1.7810 H       1  <1>        0.43000000000000005
     61 H40         2.7850   -5.0062    0.4446 H       1  <1>        0.43999999999999995
@<TRIPOS>BOND
     1    57    19    1
     2    53    16    1
     3    59    19    1
     4    19    58    1
     5    19    17    1
     6    54    16    1
     7    16    20    1
     8    16    17    1
     9    49    14    1
    10    20    60    1
    11    17    55    1
    12    17    18    1
    13    48    13    1
    14    47    13    1
    15    14    50    1
    16    14    13    1
    17    14    15    1
    18    13    12    1
    19    51    15    1
    20    18    15    1
    21    18    56    1
    22    18    21    1
    23    15    52    1
    24    41    10    1
    25    39     9    1
    26    40     9    1
    27    21    61    1
    28     9    10    1
    29     9     8    1
    30    12    46    1
    31    12    45    1
    32    12    11    1
    33    10    42    1
    34    10    11    1
    35    31     5    1
    36    11    43    1
    37    11    44    1
    38    38     8    1
    39    33     6    1
    40    32     5    1
    41     8    37    1
    42     8     7    1
    43     5     6    1
    44     5     4    1
    45     6     7    1
    46     6    34    1
    47    30     4    1
    48    22     1    1
    49     7    35    1
    50     7    36    1
    51     4    29    1
    52     4     3    1
    53     1    23    1
    54     1    24    1
    55     1     2    1
    56    25     2    1
    57     3     2    1
    58     3    27    1
    59     3    28    1
    60     2    26    1
