@<TRIPOS>MOLECULE
OTKJDMGTUTTYMP-ZWKOTPCHSA-O	6045015	-914.5889389458741
 61 60 0 0 0
SMALL
MULLIKEN NwChem

@<TRIPOS>ATOM
      1 C1          1.0297    8.5448   -1.7335 C.3     1  <1>       -0.45999999999999996
      2 C2          1.1993    7.3161   -2.6348 C.3     1  <1>       -0.2599999999999998
      3 C3          2.0855    6.2136   -2.0300 C.3     1  <1>       -0.2599999999999998
      4 C4          1.6077    5.6586   -0.6765 C.3     1  <1>       -0.2699999999999996
      5 C5          0.1736    5.1021   -0.6691 C.3     1  <1>       -0.2699999999999996
      6 C6         -0.0975    3.9798   -1.6867 C.3     1  <1>       -0.2699999999999996
      7 C7          0.8415    2.7652   -1.5854 C.3     1  <1>       -0.2699999999999996
      8 C8          0.8917    2.0906   -0.2039 C.3     1  <1>       -0.2699999999999996
      9 C9         -0.4665    1.6225    0.3463 C.3     1  <1>       -0.2699999999999996
     10 C10        -1.2376    0.6436   -0.5569 C.3     1  <1>       -0.2699999999999996
     11 C11        -0.4655   -0.6296   -0.9428 C.3     1  <1>       -0.2699999999999996
     12 C12         0.0834   -1.4423    0.2427 C.3     1  <1>       -0.2699999999999996
     13 C13        -0.9655   -1.8730    1.2835 C.3     1  <1>       -0.28000000000000025
     14 C14        -2.1386   -2.7051    0.7318 C.3     1  <1>       -0.28000000000000025
     15 C15        -1.7861   -4.0574    0.0761 C.3     1  <1>       -0.3099999999999996
     16 C16         0.8840   -5.0464    1.3892 C.3     1  <1>        -0.07000000000000028
     17 C17        -0.5114   -5.1844    2.0284 C.3     1  <1>       -0.04999999999999982
     18 C18        -1.6859   -5.2447    1.0415 C.3     1  <1>        0.13999999999999968
     19 N1         -0.4693   -6.5176    2.7646 N.4     1  <1>        -0.7300000000000004
     20 O1          1.8693   -5.4422    2.3433 O.3     1  <1>       -0.6600000000000001
     21 O2         -1.4727   -6.4887    0.3616 O.3     1  <1>       -0.6799999999999997
     22 H1          0.4876    8.3004   -0.8124 H       1  <1>        0.15000000000000002
     23 H2          0.4683    9.3340   -2.2456 H       1  <1>           0.14
     24 H3          2.0039    8.9597   -1.4450 H       1  <1>           0.14
     25 H4          0.2097    6.9056   -2.8785 H       1  <1>           0.14
     26 H5          1.6390    7.6276   -3.5913 H       1  <1>           0.13
     27 H6          2.1715    5.3914   -2.7537 H       1  <1>           0.14
     28 H7          3.1033    6.6078   -1.9004 H       1  <1>           0.13
     29 H8          2.3076    4.8753   -0.3548 H       1  <1>           0.14
     30 H9          1.6772    6.4460    0.0849 H       1  <1>           0.13
     31 H10        -0.0568    4.7436    0.3433 H       1  <1>           0.14
     32 H11        -0.5346    5.9190   -0.8602 H       1  <1>           0.13
     33 H12        -1.1397    3.6503   -1.5741 H       1  <1>           0.13
     34 H13        -0.0244    4.3850   -2.7037 H       1  <1>           0.13
     35 H14         0.5434    2.0286   -2.3438 H       1  <1>           0.13
     36 H15         1.8607    3.0705   -1.8538 H       1  <1>           0.14
     37 H16         1.5827    1.2374   -0.2577 H       1  <1>           0.13
     38 H17         1.3348    2.7826    0.5236 H       1  <1>           0.14
     39 H18        -0.3041    1.1650    1.3326 H       1  <1>           0.13
     40 H19        -1.1049    2.4954    0.5304 H       1  <1>           0.14
     41 H20        -2.1775    0.3700   -0.0573 H       1  <1>           0.14
     42 H21        -1.5343    1.1548   -1.4806 H       1  <1>           0.14
     43 H22        -1.1138   -1.2675   -1.5587 H       1  <1>           0.14
     44 H23         0.3806   -0.3625   -1.5871 H       1  <1>           0.14
     45 H24         0.6050   -2.3223   -0.1629 H       1  <1>           0.14
     46 H25         0.8528   -0.8562    0.7598 H       1  <1>           0.14
     47 H26        -0.4599   -2.4051    2.1032 H       1  <1>           0.14
     48 H27        -1.3897   -0.9767    1.7502 H       1  <1>        0.15000000000000002
     49 H28        -2.8733   -2.8739    1.5318 H       1  <1>        0.15000000000000002
     50 H29        -2.6604   -2.0998   -0.0159 H       1  <1>        0.16000000000000003
     51 H30        -2.5842   -4.3211   -0.6301 H       1  <1>        0.16000000000000003
     52 H31        -0.8704   -3.9902   -0.5214 H       1  <1>        0.17000000000000004
     53 H32         0.9637   -5.7214    0.5325 H       1  <1>        0.18000000000000005
     54 H33         1.0273   -4.0219    1.0396 H       1  <1>        0.19999999999999996
     55 H34        -0.6677   -4.4144    2.7859 H       1  <1>        0.22999999999999998
     56 H35        -2.6189   -5.2947    1.6283 H       1  <1>        0.17000000000000004
     57 H36         0.4913   -6.6204    3.1386 H       1  <1>       0.43999999999999995
     58 H37        -1.1546   -6.5872    3.5217 H       1  <1>       0.43999999999999995
     59 H38        -0.6678   -7.2526    2.0659 H       1  <1>       0.43000000000000005
     60 H39         2.2616   -4.6609    2.7614 H       1  <1>        0.44999999999999996
     61 H40        -2.1895   -6.6430   -0.2736 H       1  <1>        0.43999999999999995
@<TRIPOS>BOND
     1    26     2    1
     2    25     2    1
     3    27     3    1
     4    34     6    1
     5     2     3    1
     6     2     1    1
     7    35     7    1
     8    23     1    1
     9     3    28    1
    10     3     4    1
    11    36     7    1
    12     1    24    1
    13     1    22    1
    14     6     7    1
    15     6    33    1
    16     6     5    1
    17    44    11    1
    18     7     8    1
    19    43    11    1
    20    42    10    1
    21    11    10    1
    22    11    12    1
    23    32     5    1
    24     4     5    1
    25     4    29    1
    26     4    30    1
    27     5    31    1
    28    51    15    1
    29    10    41    1
    30    10     9    1
    31    52    15    1
    32    61    21    1
    33    37     8    1
    34     8     9    1
    35     8    38    1
    36    45    12    1
    37    50    14    1
    38    15    14    1
    39    15    18    1
    40    12    46    1
    41    12    13    1
    42     9    40    1
    43     9    39    1
    44    21    18    1
    45    53    16    1
    46    14    13    1
    47    14    49    1
    48    54    16    1
    49    18    56    1
    50    18    17    1
    51    13    48    1
    52    13    47    1
    53    16    17    1
    54    16    20    1
    55    17    19    1
    56    17    55    1
    57    59    19    1
    58    20    60    1
    59    19    57    1
    60    19    58    1
