@<TRIPOS>MOLECULE
OTOIIPJYVQJATP-BYPYZUCNSA-M	6045016	-536.1754210769996
 21 20 0 0 0
SMALL
MULLIKEN NwChem

@<TRIPOS>ATOM
      1 C          -1.9246    0.0134   -0.6319 C.3     1  LIG1      -0.45999999999999996
      2 C          -0.2790    1.1961   -2.1305 C.3     1  LIG1      -0.46999999999999975
      3 C          -0.2664    1.6683    0.3173 C.3     1  LIG1       -0.04999999999999982
      4 C           0.5536   -0.5863   -0.5782 C.3     1  LIG1       0.05999999999999961
      5 C           0.3727   -1.3847    0.7543 C.2     1  LIG1       0.5300000000000002
      6 C          -0.4951    0.5613   -0.7447 C.3     1  LIG1       0.07000000000000028
      7 O          -0.5355    1.2964    1.6551 O.3     1  LIG1      -0.7100000000000009
      8 O           1.8786   -0.0537   -0.6110 O.3     1  LIG1      -0.6999999999999993
      9 O           1.1116   -0.9306    1.7019 O.co2   1  LIG1      -0.6699999999999999
     10 O          -0.4447   -2.3156    0.7810 O.co2   1  LIG1      -0.6300000000000008
     11 H          -2.6546    0.8037   -0.8614 H       1  LIG1          0.14
     12 H          -2.1149   -0.3610    0.3751 H       1  LIG1          0.14
     13 H          -2.0823   -0.8167   -1.3313 H       1  LIG1          0.14
     14 H          -0.9480    2.0549   -2.2871 H       1  LIG1          0.14
     15 H           0.7574    1.5334   -2.2388 H       1  LIG1       0.15000000000000002
     16 H          -0.4818    0.4657   -2.9251 H       1  LIG1          0.14
     17 H           0.7665    2.0370    0.2016 H       1  LIG1          0.12
     18 H          -0.9413    2.5077    0.0900 H       1  LIG1          0.13
     19 H           0.4271   -1.2861   -1.4170 H       1  LIG1       0.10999999999999999
     20 H           0.0902    0.5622    1.8696 H       1  LIG1       0.41000000000000003
     21 H           2.1040   -0.1245    0.3487 H       1  LIG1            0.4
@<TRIPOS>BOND
     1    16     2    1
     2    14     2    1
     3    15     2    1
     4     2     6    1
     5    19     4    1
     6    13     1    1
     7    11     1    1
     8     6     1    1
     9     6     4    1
    10     6     3    1
    11     1    12    1
    12     8     4    1
    13     8    21    1
    14     4     5    1
    15    18     3    1
    16    17     3    1
    17     3     7    1
    18     5    10   ar
    19     5     9   ar
    20     7    20    1
