@<TRIPOS>MOLECULE
OUGLPIHDPBRSID-UHFFFAOYSA-L	6045017	-608.5829568222116
 17 16 0 0 0
SMALL
MULLIKEN NwChem

@<TRIPOS>ATOM
      1 C           0.3089    2.7095   -0.6053 C.3     1  LIG1      -0.46999999999999975
      2 C          -0.1102    1.3500   -1.1813 C.3     1  LIG1      -0.23000000000000043
      3 C           0.7433    0.1767   -0.6787 C.3     1  LIG1         -0.25
      4 C           0.6071   -0.1038    0.8181 C.2     1  LIG1       0.3700000000000001
      5 C           0.5047   -1.1586   -1.5648 C.2     1  LIG1           0.5
      6 C          -0.7789    0.0103    1.5144 C.2     1  LIG1       0.45999999999999996
      7 O           1.6041   -0.3665    1.4951 O.2     1  LIG1      -0.5600000000000005
      8 O           1.3419   -2.0700   -1.3750 O.co2   1  LIG1      -0.6699999999999999
      9 O          -0.4517   -1.1067   -2.3791 O.co2   1  LIG1      -0.6500000000000004
     10 O          -1.1094    1.2084    1.7695 O.co2   1  LIG1      -0.6400000000000006
     11 O          -1.3844   -1.0481    1.7936 O.co2   1  LIG1      -0.6500000000000004
     12 H           0.1430    2.6941    0.4767 H       1  LIG1       0.15000000000000002
     13 H          -0.2811    3.5361   -1.0376 H       1  LIG1          0.13
     14 H           1.3713    2.9208   -0.8088 H       1  LIG1          0.13
     15 H          -1.1573    1.1608   -0.9252 H       1  LIG1          0.13
     16 H          -0.0599    1.3538   -2.2777 H       1  LIG1          0.12
     17 H           1.8109    0.4041   -0.8212 H       1  LIG1           0.12
@<TRIPOS>BOND
     1     9     5   ar
     2    16     2    1
     3     5     8   ar
     4     5     3    1
     5     2    15    1
     6     2     3    1
     7     2     1    1
     8    13     1    1
     9    17     3    1
    10    14     1    1
    11     3     4    1
    12     1    12    1
    13     4     7    2
    14     4     6    1
    15     6    10   ar
    16     6    11   ar
