@<TRIPOS>MOLECULE
OUYCCCASQSFEME-QMMMGPOBSA-N	6045020	-629.8745679066027
 24 24 0 0 0
SMALL
MULLIKEN NwChem

@<TRIPOS>ATOM
      1 CD2        -1.8829    0.2574    0.0765 C.ar    1  TYR1      -0.20999999999999996
      2 CD1        -0.1066   -0.7281   -1.2034 C.ar    1  TYR1      -0.20999999999999996
      3 CE2        -2.5649   -0.9590    0.0783 C.ar    1  TYR1      -0.20999999999999996
      4 CE1        -0.7730   -1.9498   -1.2103 C.ar    1  TYR1      -0.1900000000000004
      5 CB          0.1077    1.7065   -0.5185 C.3     1  TYR1      -0.3600000000000003
      6 CG         -0.6461    0.3971   -0.5619 C.ar    1  TYR1      0.13999999999999968
      7 CZ         -2.0092   -2.0686   -0.5669 C.ar    1  TYR1       0.33999999999999986
      8 CA          1.0173    1.8598    0.7250 C.3     1  TYR1       -0.040000000000000036
      9 C           2.0150    0.7022    0.7411 C.2     1  TYR1       0.5899999999999999
     10 N           1.6819    3.1629    0.6746 N.3     1  TYR1      -0.7599999999999998
     11 OH         -2.6249   -3.2906   -0.6068 O.3     1  TYR1      -0.6799999999999997
     12 O           2.9483    0.6056   -0.0297 O.2     1  TYR1      -0.5199999999999996
     13 OXT         1.7487   -0.2147    1.6963 O.3     1  TYR1      -0.5800000000000001
     14 HD2        -2.3259    1.1142    0.5796 H       1  TYR1       0.16000000000000003
     15 HD1         0.8568   -0.6447   -1.7006 H       1  TYR1       0.15000000000000002
     16 HE2        -3.5292   -1.0453    0.5764 H       1  TYR1       0.16000000000000003
     17 HE1        -0.3569   -2.8184   -1.7110 H       1  TYR1       0.15000000000000002
     18 HB1         0.7437    1.8065   -1.4070 H       1  TYR1       0.17000000000000004
     19 HB2        -0.5783    2.5599   -0.5132 H       1  TYR1       0.17000000000000004
     20 HA          0.4016    1.8085    1.6281 H       1  TYR1       0.17000000000000004
     21 H1          2.2089    3.3156    1.5340 H       1  TYR1       0.33999999999999997
     22 H2          2.3739    3.1364   -0.0754 H       1  TYR1       0.32999999999999996
     23 HH         -3.4687   -3.2351   -0.1323 H       1  TYR1       0.44999999999999996
     24 HXT         2.4076   -0.9281    1.5908 H       1  TYR1       0.43999999999999995
@<TRIPOS>BOND
     1    17     4    1
     2    15     2    1
     3    18     5    1
     4     4     2   ar
     5     4     7   ar
     6     2     6   ar
     7    11     7    1
     8    11    23    1
     9     7     3   ar
    10     6     5    1
    11     6     1   ar
    12     5    19    1
    13     5     8    1
    14    22    10    1
    15    12     9    2
    16     1     3   ar
    17     1    14    1
    18     3    16    1
    19    10     8    1
    20    10    21    1
    21     8     9    1
    22     8    20    1
    23     9    13    1
    24    24    13    1
