@<TRIPOS>MOLECULE
OVBPIULPVIDEAO-LBPRGKRZSA-L	6045021	-1568.9418076593445
 49 51 0 0 0
SMALL
MULLIKEN NwChem

@<TRIPOS>ATOM
      1 C          -1.1383    2.2994   -0.1092 C.ar    0  UNK0      -0.1900000000000004
      2 C           0.8596    1.3207   -1.0212 C.ar    0  UNK0      -0.21999999999999975
      3 C          -1.6064    1.0455    0.2461 C.ar    0  UNK0      -0.21999999999999975
      4 C           0.4040    0.0545   -0.6606 C.ar    0  UNK0      -0.21999999999999975
      5 CB          3.6404    5.3508   -1.3719 C.3     1  GLU1      -0.2999999999999998
      6 CG          4.2768    4.0373   -0.8689 C.3     1  GLU1       -0.3600000000000003
      7 C          -0.5148   -2.5418    0.3340 C.3     0  UNK0       -0.16999999999999993
      8 C          -0.9049   -5.0292    0.6923 C.ar    0  UNK0           0.0
      9 C           0.0972    2.4692   -0.7579 C.ar    0  UNK0       0.04999999999999982
     10 C          -0.8448   -0.1150   -0.0251 C.ar    0  UNK0       0.3700000000000001
     11 C          -1.2816   -3.7084    0.9289 C.ar    0  UNK0       0.2699999999999996
     12 CA          2.2885    5.2364   -2.1606 C.3     1  GLU1       -0.05999999999999961
     13 CD          4.7466    3.0229   -1.9444 C.2     1  GLU1       0.5499999999999998
     14 C          -2.9873   -4.4372    2.2820 C.ar    0  UNK0       0.1900000000000004
     15 C          -2.5674   -5.7748    2.0403 C.ar    0  UNK0       0.5499999999999998
     16 C           0.5241    3.8696   -1.0914 C.2     0  UNK0       0.5499999999999998
     17 C          -4.1923   -4.1920    3.1759 C.ar    0  UNK0       0.5099999999999998
     18 C           2.5113    5.4822   -3.6676 C.2     1  GLU1       0.5800000000000001
     19 C          -4.3809   -6.5473    3.4873 C.ar    0  UNK0       0.5899999999999999
     20 N          -4.9000   -7.6438    3.9616 N.pl3   0  UNK0      -0.7800000000000002
     21 N          -1.3426   -1.3574    0.3042 N.pl3   0  UNK0      -0.7000000000000002
     22 N          -1.5296   -6.0786    1.2412 N.ar    0  UNK0      -0.5300000000000002
     23 N          -2.3285   -3.4268    1.7245 N.ar    0  UNK0      -0.5800000000000001
     24 N           1.6038    3.9794   -1.9154 N.am    1  GLU1      -0.6600000000000001
     25 N          -3.2578   -6.7733    2.6427 N.ar    0  UNK0      -0.7000000000000002
     26 N          -4.8019   -5.2780    3.7197 N.ar    0  UNK0      -0.6600000000000001
     27 OE2         5.9225    2.6486   -1.9270 O.co2   1  GLU1      -0.5999999999999996
     28 OE1         3.8267    2.6198   -2.7686 O.co2   1  GLU1      -0.6699999999999999
     29 O          -0.0866    4.8500   -0.6460 O.2     0  UNK0      -0.6199999999999992
     30 O          -4.5574   -3.0245    3.3636 O.2     0  UNK0      -0.6400000000000006
     31 OXT         2.1806    6.5361   -4.1846 O.2     1  GLU1      -0.5399999999999991
     32 O           3.1136    4.5234   -4.3662 O.3     1  GLU1      -0.6400000000000006
     33 H          -1.7192    3.1897    0.1112 H       0  UNK0       0.15000000000000002
     34 H           1.8335    1.3929   -1.5009 H       0  UNK0       0.16000000000000003
     35 H          -2.5692    0.9388    0.7421 H       0  UNK0       0.15000000000000002
     36 H           1.0254   -0.8082   -0.8781 H       0  UNK0       0.16000000000000003
     37 HB1         4.3668    5.8968   -1.9887 H       1  GLU1       0.17000000000000004
     38 HB2         3.4517    5.9803   -0.4924 H       1  GLU1       0.17000000000000004
     39 HG1         5.1431    4.2885   -0.2475 H       1  GLU1          0.14
     40 HG2         3.5485    3.5278   -0.2232 H       1  GLU1       0.16000000000000003
     41 H          -0.1825   -2.8038   -0.6819 H       0  UNK0       0.18000000000000005
     42 H           0.4096   -2.3663    0.9176 H       0  UNK0       0.18000000000000005
     43 H          -0.0667   -5.2555    0.0318 H       0  UNK0       0.18000000000000005
     44 HA          1.6160    6.0297   -1.8372 H       1  GLU1       0.18000000000000005
     45 H          -5.6887   -7.3494    4.5428 H       0  UNK0          0.28
     46 H          -2.1103   -1.4043    0.9689 H       0  UNK0          0.35
     47 H           2.1693    3.1670   -2.1773 H       1  GLU1           0.4
     48 H          -2.9825   -7.7333    2.4853 H       0  UNK0          0.35
     49 H           3.4030    3.7408   -3.7771 H       1  GLU1       0.45999999999999996
@<TRIPOS>BOND
     1    32    49    1
     2    32    18    1
     3    31    18    2
     4    18    12    1
     5    28    13   ar
     6    47    24    1
     7    12    24    1
     8    12    44    1
     9    12     5    1
    10    37     5    1
    11    13    27   ar
    12    13     6    1
    13    24    16   am
    14    34     2    1
    15     5     6    1
    16     5    38    1
    17    16     9    1
    18    16    29    2
    19     2     9   ar
    20     2     4   ar
    21    36     4    1
    22     6    39    1
    23     6    40    1
    24     9     1   ar
    25    41     7    1
    26     4    10   ar
    27     1    33    1
    28     1     3   ar
    29    10     3   ar
    30    10    21    1
    31    43     8    1
    32     3    35    1
    33    21     7    1
    34    21    46    1
    35     7    42    1
    36     7    11    1
    37     8    11   ar
    38     8    22   ar
    39    11    23   ar
    40    22    15   ar
    41    23    14   ar
    42    15    14   ar
    43    15    25   ar
    44    14    17   ar
    45    48    25    1
    46    25    19   ar
    47    17    30    2
    48    17    26   ar
    49    19    26   ar
    50    19    20    1
    51    20    45    1
