@<TRIPOS>MOLECULE
OVRNDRQMDRJTHS-FMDGEEDCSA-N	6045023	-819.7374236480185
 30 30 0 0 0
SMALL
MULLIKEN NwChem

@<TRIPOS>ATOM
      1 C           2.1590   -1.4554   -1.2690 C.3     1  LIG1       -0.5300000000000002
      2 C          -0.0875    2.5439    1.3297 C.3     1  LIG1       -0.08000000000000007
      3 C           0.7951   -2.0265   -1.5714 C.2     1  LIG1       0.5199999999999996
      4 C           0.4334    1.6343    0.1832 C.3     1  LIG1       0.08000000000000007
      5 C          -0.7823   -1.0647    0.0671 C.3     1  LIG1       -0.019999999999999574
      6 C          -0.6357    1.3168   -0.8679 C.3     1  LIG1       0.1200000000000001
      7 C          -1.5789    0.1728   -0.4251 C.3     1  LIG1       0.08000000000000007
      8 C           0.2391   -0.6009    1.1267 C.3     1  LIG1       0.3099999999999996
      9 N          -0.3582   -1.8687   -1.0591 N.2     1  LIG1      -0.5099999999999998
     10 O           0.5870    2.2949    2.5673 O.3     1  LIG1      -0.6500000000000004
     11 O           0.8677   -2.8452   -2.6606 O.2     1  LIG1      -0.6199999999999992
     12 O           0.0698    0.9906   -2.0645 O.3     1  LIG1      -0.6699999999999999
     13 O          -2.5012    0.6315    0.5520 O.3     1  LIG1      -0.6899999999999995
     14 O          -0.5244   -0.2245    2.2704 O.3     1  LIG1      -0.6899999999999995
     15 O           1.0746    0.4519    0.6920 O.3     1  LIG1      -0.5099999999999998
     16 H           2.1436   -0.3859   -1.4886 H       1  LIG1       0.19999999999999996
     17 H           2.9069   -1.9534   -1.8885 H       1  LIG1       0.17000000000000004
     18 H           2.4262   -1.5721   -0.2184 H       1  LIG1       0.18999999999999995
     19 H           0.0303    3.5942    1.0274 H       1  LIG1       0.17000000000000004
     20 H          -1.1450    2.3707    1.5245 H       1  LIG1       0.17000000000000004
     21 H           1.2511    2.1484   -0.3325 H       1  LIG1       0.17000000000000004
     22 H          -1.5055   -1.6810    0.6158 H       1  LIG1       0.17000000000000004
     23 H          -1.2573    2.2139   -1.0176 H       1  LIG1       0.15000000000000002
     24 H          -2.1668   -0.1357   -1.3002 H       1  LIG1       0.16000000000000003
     25 H           0.9343   -1.4067    1.3898 H       1  LIG1       0.16000000000000003
     26 H           1.5316    2.1811    2.3702 H       1  LIG1       0.43000000000000005
     27 H          -0.0454   -3.1599   -2.8025 H       1  LIG1       0.42000000000000004
     28 H          -0.4897    0.4073   -2.6001 H       1  LIG1       0.43000000000000005
     29 H          -2.1091    0.4085    1.4191 H       1  LIG1       0.43999999999999995
     30 H          -0.0340    0.5041    2.7130 H       1  LIG1       0.43999999999999995
@<TRIPOS>BOND
     1    27    11    1
     2    11     3    1
     3    28    12    1
     4    12     6    1
     5    17     1    1
     6     3     1    1
     7     3     9    2
     8    16     1    1
     9    24     7    1
    10     1    18    1
    11     9     5    1
    12    23     6    1
    13     6     7    1
    14     6     4    1
    15     7     5    1
    16     7    13    1
    17    21     4    1
    18     5    22    1
    19     5     8    1
    20     4    15    1
    21     4     2    1
    22    13    29    1
    23    15     8    1
    24    19     2    1
    25     8    25    1
    26     8    14    1
    27     2    20    1
    28     2    10    1
    29    14    30    1
    30    26    10    1
