@<TRIPOS>MOLECULE
OWKGVPXWOHLTSL-LIUJFMQASA-N	6045024	-1169.3363157156361
 75 78 0 0 0
SMALL
MULLIKEN NwChem

@<TRIPOS>ATOM
      1 C          -2.2273   -1.5688    6.1967 C.3     1  LIG1      -0.45999999999999996
      2 C          -3.0249    0.2228    4.6047 C.3     1  LIG1      -0.45999999999999996
      3 C           2.9707    1.3772    4.2032 C.3     1  LIG1      -0.46999999999999975
      4 C          -0.4302   -0.6362   -6.3878 C.3     1  LIG1      -0.46999999999999975
      5 C          -0.0152   -0.8982    1.3912 C.3     1  LIG1         -0.5
      6 C           0.3055    1.6559   -3.8242 C.3     1  LIG1      -0.4900000000000002
      7 C           0.6969   -0.2748    5.7297 C.3     1  LIG1      -0.28000000000000025
      8 C          -0.6947    0.3660    5.5692 C.3     1  LIG1      -0.2599999999999998
      9 C           1.4178   -0.6084    4.4080 C.3     1  LIG1      -0.28000000000000025
     10 C           1.3310   -1.3115   -2.4176 C.2     1  LIG1      -0.23000000000000043
     11 C           0.6102   -1.4104   -3.7332 C.3     1  LIG1      -0.3200000000000003
     12 C           3.0213   -0.9675    1.7858 C.3     1  LIG1      -0.2999999999999998
     13 C           2.7928   -1.3092    0.2798 C.3     1  LIG1      -0.29000000000000004
     14 C           0.0752    1.7971   -0.7869 C.3     1  LIG1      -0.29000000000000004
     15 C          -3.1194    0.7513   -3.9774 C.3     1  LIG1       -0.34999999999999964
     16 C           0.2670    1.5298    0.7299 C.3     1  LIG1      -0.2999999999999998
     17 C          -2.0845    1.3879   -3.0166 C.3     1  LIG1      -0.3099999999999996
     18 C          -1.8127   -0.5841    5.0929 C.3     1  LIG1      -0.07000000000000028
     19 C           1.8060    0.6138    3.5430 C.3     1  LIG1      -0.08000000000000007
     20 C          -1.3777   -0.6625   -5.1794 C.3     1  LIG1       -0.17999999999999972
     21 C           1.0138   -0.4305   -1.4641 C.2     1  LIG1      0.17999999999999972
     22 C           2.1608    0.2970    2.0659 C.3     1  LIG1      -0.08999999999999986
     23 C          -0.7392   -0.6768   -3.7447 C.3     1  LIG1      -0.11000000000000032
     24 C           1.8437   -0.2082   -0.2257 C.3     1  LIG1      -0.17999999999999972
     25 C          -0.1888    0.5026   -1.5887 C.3     1  LIG1      -0.1900000000000004
     26 C          -2.4305    0.4434   -5.2861 C.2     1  LIG1       0.45999999999999996
     27 C           1.0099    0.1949    1.0199 C.3     1  LIG1      0.08999999999999986
     28 C          -0.6603    0.7292   -3.0586 C.3     1  LIG1      0.11000000000000032
     29 O          -2.6602    1.0498   -6.3165 O.2     1  LIG1      -0.5299999999999994
     30 H          -2.6328   -1.0278    7.0616 H       1  LIG1          0.14
     31 H          -1.3823   -2.1725    6.5478 H       1  LIG1       0.15000000000000002
     32 H          -3.0007   -2.2616    5.8429 H       1  LIG1          0.14
     33 H          -3.4222    0.8496    5.4133 H       1  LIG1          0.14
     34 H          -2.7530    0.8822    3.7732 H       1  LIG1       0.15000000000000002
     35 H          -3.8350   -0.4340    4.2657 H       1  LIG1          0.14
     36 H           3.8840    0.7679    4.2017 H       1  LIG1          0.14
     37 H           3.1911    2.3105    3.6720 H       1  LIG1          0.14
     38 H           2.7525    1.6332    5.2456 H       1  LIG1       0.15000000000000002
     39 H           0.1868   -1.5368   -6.4348 H       1  LIG1       0.16000000000000003
     40 H          -1.0224   -0.5724   -7.3029 H       1  LIG1       0.15000000000000002
     41 H           0.2340    0.2316   -6.3711 H       1  LIG1       0.16000000000000003
     42 H          -0.5965   -0.5878    2.2642 H       1  LIG1       0.16000000000000003
     43 H          -0.7218   -1.0795    0.5772 H       1  LIG1       0.15000000000000002
     44 H           0.4574   -1.8582    1.6249 H       1  LIG1       0.15000000000000002
     45 H           1.3202    1.2482   -3.8516 H       1  LIG1       0.15000000000000002
     46 H          -0.0316    1.8062   -4.8546 H       1  LIG1       0.15000000000000002
     47 H           0.3545    2.6445   -3.3578 H       1  LIG1       0.15000000000000002
     48 H           1.3250    0.3865    6.3392 H       1  LIG1          0.13
     49 H           0.6021   -1.2022    6.3095 H       1  LIG1          0.13
     50 H          -0.6264    1.2129    4.8738 H       1  LIG1          0.14
     51 H          -1.0064    0.8013    6.5300 H       1  LIG1          0.12
     52 H           2.3313   -1.1689    4.6471 H       1  LIG1          0.13
     53 H           0.7940   -1.2998    3.8358 H       1  LIG1       0.15000000000000002
     54 H           2.2055   -1.9477   -2.2934 H       1  LIG1          0.13
     55 H           0.4537   -2.4621   -4.0154 H       1  LIG1       0.15000000000000002
     56 H           1.2748   -1.0032   -4.5079 H       1  LIG1       0.16000000000000003
     57 H           2.7006   -1.8046    2.4132 H       1  LIG1          0.14
     58 H           4.0763   -0.7929    2.0169 H       1  LIG1          0.14
     59 H           2.3233   -2.2934    0.1671 H       1  LIG1          0.14
     60 H           3.7256   -1.3395   -0.2928 H       1  LIG1          0.14
     61 H          -0.7424    2.5109   -0.9334 H       1  LIG1          0.14
     62 H           0.9749    2.2779   -1.1905 H       1  LIG1          0.14
     63 H          -3.4991   -0.1866   -3.5457 H       1  LIG1       0.18000000000000005
     64 H          -3.9660    1.4212   -4.1497 H       1  LIG1       0.16000000000000003
     65 H          -0.7138    1.5185    1.2240 H       1  LIG1          0.14
     66 H           0.8154    2.3730    1.1705 H       1  LIG1          0.13
     67 H          -1.9991    2.4527   -3.2611 H       1  LIG1       0.16000000000000003
     68 H          -2.4916    1.3404   -2.0000 H       1  LIG1       0.16000000000000003
     69 H          -1.4374   -1.1682    4.2402 H       1  LIG1          0.13
     70 H           0.9445    1.2968    3.5059 H       1  LIG1          0.13
     71 H          -1.9589   -1.5969   -5.2566 H       1  LIG1       0.18000000000000005
     72 H           2.7530    1.1573    1.7207 H       1  LIG1          0.12
     73 H          -1.4144   -1.2674   -3.1073 H       1  LIG1          0.14
     74 H           2.4731    0.6712   -0.4416 H       1  LIG1          0.14
     75 H          -1.0361    0.0039   -1.0919 H       1  LIG1       0.15000000000000002
@<TRIPOS>BOND
     1    40     4    1
     2    39     4    1
     3     4    41    1
     4     4    20    1
     5    29    26    2
     6    26    20    1
     7    26    15    1
     8    71    20    1
     9    20    23    1
    10    46     6    1
    11    56    11    1
    12    64    15    1
    13    55    11    1
    14    15    63    1
    15    15    17    1
    16    45     6    1
    17     6    47    1
    18     6    28    1
    19    23    11    1
    20    23    73    1
    21    23    28    1
    22    11    10    1
    23    67    17    1
    24    28    17    1
    25    28    25    1
    26    17    68    1
    27    10    54    1
    28    10    21    2
    29    25    21    1
    30    25    75    1
    31    25    14    1
    32    21    24    1
    33    62    14    1
    34    61    14    1
    35    14    16    1
    36    74    24    1
    37    60    13    1
    38    24    13    1
    39    24    27    1
    40    59    13    1
    41    13    12    1
    42    43     5    1
    43    16    27    1
    44    16    66    1
    45    16    65    1
    46    27     5    1
    47    27    22    1
    48     5    44    1
    49     5    42    1
    50    72    22    1
    51    12    58    1
    52    12    22    1
    53    12    57    1
    54    22    19    1
    55    70    19    1
    56    19     3    1
    57    19     9    1
    58    37     3    1
    59    34     2    1
    60    53     9    1
    61    36     3    1
    62     3    38    1
    63    69    18    1
    64    35     2    1
    65     9    52    1
    66     9     7    1
    67     2    18    1
    68     2    33    1
    69    50     8    1
    70    18     8    1
    71    18     1    1
    72     8     7    1
    73     8    51    1
    74     7    49    1
    75     7    48    1
    76    32     1    1
    77     1    31    1
    78     1    30    1
