@<TRIPOS>MOLECULE
OYHQOLUKZRVURQ-HZJYTTRNSA-M	6045026	-854.7752907021395
 51 50 0 0 0
SMALL
MULLIKEN NwChem

@<TRIPOS>ATOM
      1 C           4.8779   -4.4808    6.1478 C.3     1  LIG1      -0.45999999999999996
      2 C           4.8409   -2.9823    5.8258 C.3     1  LIG1      -0.2599999999999998
      3 C           4.9929   -2.6600    4.3296 C.3     1  LIG1      -0.2599999999999998
      4 C           3.9264   -3.2818    3.4123 C.3     1  LIG1      -0.2599999999999998
      5 C           2.4690   -2.9107    3.7680 C.3     1  LIG1      -0.3200000000000003
      6 C           2.2240   -1.4223    3.8095 C.2     1  LIG1      -0.1299999999999999
      7 C           1.7270   -0.6613    2.8266 C.2     1  LIG1      -0.1200000000000001
      8 C           1.2513   -1.1087    1.4642 C.3     1  LIG1      -0.3600000000000003
      9 C          -0.2353   -0.8789    1.3001 C.2     1  LIG1      -0.1299999999999999
     10 C          -0.8371   -0.0181    0.4700 C.2     1  LIG1      -0.1200000000000001
     11 C          -0.1962    0.9068   -0.5293 C.3     1  LIG1      -0.3200000000000003
     12 C          -0.3874    0.4483   -1.9941 C.3     1  LIG1      -0.2599999999999998
     13 C          -1.8513    0.2662   -2.4324 C.3     1  LIG1      -0.2699999999999996
     14 C          -2.7499    1.5005   -2.2472 C.3     1  LIG1      -0.2699999999999996
     15 C          -2.2575    2.7758   -2.9536 C.3     1  LIG1      -0.2699999999999996
     16 C          -2.0754    2.6434   -4.4784 C.3     1  LIG1        -0.25
     17 C          -3.3041    2.0545   -5.1912 C.3     1  LIG1       -0.33999999999999986
     18 C          -4.6127    2.8125   -4.7630 C.2     1  LIG1       0.5300000000000002
     19 O          -4.5938    4.0505   -4.9862 O.co2   1  LIG1      -0.6899999999999995
     20 O          -5.4983    2.1097   -4.2090 O.co2   1  LIG1      -0.6799999999999997
     21 H           4.0302   -5.0111    5.6989 H       1  LIG1       0.15000000000000002
     22 H           4.8414   -4.6560    7.2294 H       1  LIG1          0.14
     23 H           5.7967   -4.9427    5.7641 H       1  LIG1          0.14
     24 H           3.9031   -2.5527    6.2031 H       1  LIG1          0.14
     25 H           5.6457   -2.4752    6.3754 H       1  LIG1          0.13
     26 H           4.9793   -1.5701    4.1994 H       1  LIG1          0.13
     27 H           5.9838   -2.9983    3.9934 H       1  LIG1          0.13
     28 H           4.1233   -2.9566    2.3823 H       1  LIG1          0.13
     29 H           4.0244   -4.3761    3.4158 H       1  LIG1          0.14
     30 H           1.8030   -3.3912    3.0424 H       1  LIG1       0.15000000000000002
     31 H           2.2142   -3.3436    4.7453 H       1  LIG1       0.15000000000000002
     32 H           2.5160   -0.9246    4.7351 H       1  LIG1          0.14
     33 H           1.6089    0.4069    3.0114 H       1  LIG1          0.13
     34 H           1.8079   -0.5602    0.6945 H       1  LIG1       0.16000000000000003
     35 H           1.4779   -2.1712    1.3075 H       1  LIG1       0.16000000000000003
     36 H          -0.8568   -1.4795    1.9657 H       1  LIG1          0.13
     37 H          -1.9265    0.0114    0.4848 H       1  LIG1          0.14
     38 H          -0.6389    1.9052   -0.4159 H       1  LIG1       0.15000000000000002
     39 H           0.8760    1.0202   -0.3269 H       1  LIG1       0.15000000000000002
     40 H           0.0969    1.1862   -2.6468 H       1  LIG1          0.14
     41 H           0.1538   -0.4988   -2.1336 H       1  LIG1          0.13
     42 H          -1.8556   -0.0221   -3.4909 H       1  LIG1          0.14
     43 H          -2.2874   -0.5833   -1.8870 H       1  LIG1          0.13
     44 H          -3.7552    1.2792   -2.6249 H       1  LIG1          0.13
     45 H          -2.8647    1.7109   -1.1719 H       1  LIG1          0.13
     46 H          -3.0006    3.5631   -2.7841 H       1  LIG1          0.12
     47 H          -1.3148    3.1258   -2.5014 H       1  LIG1          0.13
     48 H          -1.9069    3.6499   -4.8800 H       1  LIG1          0.12
     49 H          -1.1735    2.0481   -4.7017 H       1  LIG1          0.13
     50 H          -3.1617    2.1604   -6.2772 H       1  LIG1          0.12
     51 H          -3.4112    0.9839   -4.9740 H       1  LIG1       0.10999999999999999
@<TRIPOS>BOND
     1    50    17    1
     2    17    51    1
     3    17    18    1
     4    17    16    1
     5    19    18   ar
     6    48    16    1
     7    18    20   ar
     8    49    16    1
     9    16    15    1
    10    42    13    1
    11    15    46    1
    12    15    47    1
    13    15    14    1
    14    40    12    1
    15    44    14    1
    16    13    14    1
    17    13    12    1
    18    13    43    1
    19    14    45    1
    20    41    12    1
    21    12    11    1
    22    11    38    1
    23    11    39    1
    24    11    10    1
    25    10    37    1
    26    10     9    2
    27    34     8    1
    28     9     8    1
    29     9    36    1
    30    35     8    1
    31     8     7    1
    32    28     4    1
    33     7    33    1
    34     7     6    2
    35    30     5    1
    36     4    29    1
    37     4     5    1
    38     4     3    1
    39     5     6    1
    40     5    31    1
    41     6    32    1
    42    27     3    1
    43    26     3    1
    44     3     2    1
    45    21     1    1
    46    23     1    1
    47     2     1    1
    48     2    24    1
    49     2    25    1
    50     1    22    1
