@<TRIPOS>MOLECULE
OYIFNHCXNCRBQI-BYPYZUCNSA-M	6045027	-590.3572663025357
 21 20 0 0 0
SMALL
MULLIKEN NwChem

@<TRIPOS>ATOM
      1 C           0.4794    1.2796   -0.1668 C.3     1  LIG1      -0.28000000000000025
      2 C          -0.0164    0.8879   -1.5747 C.3     1  LIG1      -0.2699999999999996
      3 C          -0.5497    0.9466    0.9479 C.3     1  LIG1       -0.3799999999999999
      4 CA          0.2817   -0.5771   -1.9754 C.3     1  LIG1       -0.04999999999999982
      5 C           0.0951    0.6465    2.2988 C.2     1  LIG1       0.5700000000000003
      6 C          -0.0551   -1.5204   -0.7846 C.2     1  LIG1       0.5499999999999998
      7 N          -0.4729   -0.8846   -3.2092 N.3     1  LIG1      -0.7699999999999996
      8 O           0.7573   -0.5073    2.3851 O.3     1  LIG1      -0.6300000000000008
      9 O           0.0201    1.4099    3.2487 O.2     1  LIG1      -0.5500000000000007
     10 O          -1.2176   -1.9737   -0.7358 O.co2   1  LIG1      -0.6300000000000008
     11 OXT         0.8847   -1.6566    0.0688 O.co2   1  LIG1      -0.6699999999999999
     12 H           0.6995    2.3546   -0.1275 H       1  LIG1       0.15000000000000002
     13 H           1.4150    0.7491    0.0342 H       1  LIG1       0.16000000000000003
     14 H          -1.1040    1.0420   -1.6342 H       1  LIG1          0.14
     15 H           0.4255    1.5420   -2.3383 H       1  LIG1          0.14
     16 H          -1.2338    1.7888    1.0909 H       1  LIG1       0.16000000000000003
     17 H          -1.1478    0.0791    0.6491 H       1  LIG1       0.18000000000000005
     18 HA          1.3557   -0.6650   -2.1813 H       1  LIG1          0.13
     19 H1         -0.1234   -1.7839   -3.5495 H       1  LIG1       0.31000000000000005
     20 H2         -1.4062   -1.1271   -2.8575 H       1  LIG1       0.30000000000000004
     21 H           0.7300   -1.0352    1.5099 H       1  LIG1       0.44999999999999996
@<TRIPOS>BOND
     1    19     7    1
     2     7    20    1
     3     7     4    1
     4    15     2    1
     5    18     4    1
     6     4     2    1
     7     4     6    1
     8    14     2    1
     9     2     1    1
    10     6    10   ar
    11     6    11   ar
    12     1    12    1
    13     1    13    1
    14     1     3    1
    15    17     3    1
    16     3    16    1
    17     3     5    1
    18    21     8    1
    19     5     8    1
    20     5     9    2
