@<TRIPOS>MOLECULE
OZOHTVFCSKFMLL-UHFFFAOYSA-O	6045028	-453.9996687248902
 21 21 0 0 0
SMALL
MULLIKEN NwChem

@<TRIPOS>ATOM
      1 C           0.3572    3.2423    0.9747 C.3     1  LIG1            -0.54
      2 C          -0.9610   -2.0108   -0.9068 C.3     1  LIG1      -0.2400000000000002
      3 C          -1.1717    0.5059   -0.9551 C.ar    1  LIG1       -0.019999999999999574
      4 C           0.0208    1.9010    0.3997 C.ar    1  LIG1          0.54
      5 C          -0.5437   -0.6221   -0.5069 C.ar    1  LIG1      0.08999999999999986
      6 C           0.5155   -0.4868    0.4737 C.ar    1  LIG1       0.5999999999999996
      7 N           0.2651   -2.8725   -1.1309 N.4     1  LIG1       -0.7400000000000002
      8 N           1.1901   -1.5289    0.8658 N.2     1  LIG1      -0.8099999999999996
      9 N          -0.9005    1.7711   -0.5148 N.ar    1  LIG1      -0.5099999999999998
     10 N           0.7233    0.8218    0.8892 N.ar    1  LIG1      -0.6600000000000001
     11 H           0.0731    3.2870    2.0334 H       1  LIG1       0.20999999999999996
     12 H          -0.1914    4.0107    0.4303 H       1  LIG1       0.19999999999999996
     13 H           1.4319    3.4472    0.9049 H       1  LIG1       0.20999999999999996
     14 H          -1.5072   -2.4992   -0.0924 H       1  LIG1       0.22999999999999998
     15 H          -1.5842   -2.0170   -1.8033 H       1  LIG1       0.22999999999999998
     16 H          -1.9612    0.4382   -1.7012 H       1  LIG1       0.18999999999999995
     17 H           0.8915   -2.6154   -0.2461 H       1  LIG1      0.43999999999999995
     18 H           0.0403   -3.8700   -1.1715 H       1  LIG1      0.43000000000000005
     19 H           0.7658   -2.6149   -1.9862 H       1  LIG1      0.43000000000000005
     20 H           1.9250   -1.3642    1.5502 H       1  LIG1       0.33999999999999997
     21 H           1.4403    0.9914    1.5881 H       1  LIG1            0.4
@<TRIPOS>BOND
     1    19     7    1
     2    15     2    1
     3    16     3    1
     4    18     7    1
     5     7     2    1
     6     7    17    1
     7     3     9   ar
     8     3     5   ar
     9     2     5    1
    10     2    14    1
    11     9     4   ar
    12     5     6   ar
    13     4    10   ar
    14     4     1    1
    15    12     1    1
    16     6     8    2
    17     6    10   ar
    18     8    20    1
    19    10    21    1
    20    13     1    1
    21     1    11    1
