@<TRIPOS>MOLECULE
OZRNSSUDZOLUSN-LBPRGKRZSA-L	6045029	-1570.0983404162644
 51 53 0 0 0
SMALL
MULLIKEN NwChem

@<TRIPOS>ATOM
      1 C          -1.6258    2.3856   -0.8066 C.ar    0  UNK0      -0.1900000000000004
      2 C           0.6238    1.6011   -1.1127 C.ar    0  UNK0      -0.21999999999999975
      3 C          -2.0659    1.0851   -0.6337 C.ar    0  UNK0      -0.21999999999999975
      4 C           0.1922    0.2862   -0.9456 C.ar    0  UNK0      -0.23000000000000043
      5 CB          2.9783    5.8858   -0.3323 C.3     1  GLU1      -0.2999999999999998
      6 CG          3.5698    4.6002    0.2856 C.3     1  GLU1       -0.34999999999999964
      7 C          -0.9080   -2.5388   -0.4595 C.3     0  UNK0       -0.17999999999999972
      8 C          -1.4048   -2.9701    2.0401 C.3     0  UNK0       -0.1900000000000004
      9 C          -0.2735    2.6790   -1.0448 C.ar    0  UNK0       0.04999999999999982
     10 C          -1.1640   -0.0041   -0.6846 C.ar    0  UNK0       0.3799999999999999
     11 C          -1.4711   -3.4540    0.5960 C.2     0  UNK0       0.2599999999999998
     12 CA          1.9750    5.7052   -1.5256 C.3     1  GLU1       -0.05999999999999961
     13 CD          4.4702    3.7507   -0.6475 C.2     1  GLU1       0.5499999999999998
     14 C          -2.6302   -5.3410    1.2627 C.ar    0  UNK0       0.08999999999999986
     15 C          -2.2217   -5.1640    2.5696 C.ar    0  UNK0       0.5599999999999996
     16 C           0.1049    4.1273   -1.1734 C.2     0  UNK0       0.5599999999999996
     17 C          -3.5037   -6.5122    0.9391 C.ar    0  UNK0       0.46999999999999975
     18 C           2.6408    6.0709   -2.8695 C.2     1  GLU1       0.5899999999999999
     19 C          -3.4225   -7.1800    3.2239 C.ar    0  UNK0       0.5700000000000003
     20 N          -3.6395   -7.9200    4.2809 N.pl3   0  UNK0      -0.7999999999999998
     21 N          -1.6431   -1.2749   -0.4434 N.pl3   0  UNK0      -0.6900000000000004
     22 N          -1.3312   -4.1486    2.9043 N.pl3   0  UNK0      -0.6500000000000004
     23 N          -2.1042   -4.5256    0.2659 N.2     0  UNK0        -0.54
     24 N           1.3849    4.3781   -1.5582 N.am    1  GLU1      -0.6699999999999999
     25 N          -2.6158   -6.0317    3.5292 N.ar    0  UNK0        -0.71
     26 N          -3.8549   -7.3599    1.9639 N.ar    0  UNK0      -0.6799999999999997
     27 OE2         5.6528    3.5810   -0.3377 O.co2   1  GLU1      -0.5999999999999996
     28 OE1         3.8742    3.2718   -1.6995 O.co2   1  GLU1      -0.6699999999999999
     29 O          -0.7182    5.0232   -0.9407 O.2     0  UNK0      -0.6199999999999992
     30 O          -3.8933   -6.6852   -0.2260 O.2     0  UNK0      -0.6699999999999999
     31 O           2.4008    7.1359   -3.4125 O.2     1  GLU1      -0.5399999999999991
     32 OXT         3.5071    5.2052   -3.3897 O.3     1  GLU1      -0.6300000000000008
     33 H          -2.3206    3.2178   -0.7512 H       0  UNK0       0.15000000000000002
     34 H           1.6842    1.7674   -1.2908 H       0  UNK0       0.15000000000000002
     35 H          -3.1189    0.8888   -0.4361 H       0  UNK0       0.16000000000000003
     36 H           0.9172   -0.5172   -1.0241 H       0  UNK0       0.16000000000000003
     37 HB1         3.7952    6.5464   -0.6519 H       1  GLU1       0.17000000000000004
     38 HB2         2.4454    6.4205    0.4650 H       1  GLU1       0.17000000000000004
     39 HG1         4.1604    4.8798    1.1646 H       1  GLU1          0.14
     40 HG2         2.7396    3.9692    0.6307 H       1  GLU1       0.16000000000000003
     41 H          -0.9624   -3.0401   -1.4349 H       0  UNK0       0.16000000000000003
     42 H           0.1450   -2.3153   -0.2499 H       0  UNK0       0.18999999999999995
     43 H          -2.2927   -2.3458    2.2660 H       0  UNK0       0.16000000000000003
     44 H          -0.5233   -2.3439    2.2094 H       0  UNK0       0.18000000000000005
     45 HA          1.1545    6.4126   -1.4125 H       1  GLU1       0.17000000000000004
     46 H          -4.2220   -8.6988    3.9617 H       0  UNK0          0.26
     47 H          -2.6474   -1.3829   -0.4625 H       0  UNK0          0.36
     48 H          -1.3000   -3.9306    3.8945 H       0  UNK0          0.37
     49 H           2.0893    3.6366   -1.6344 H       1  GLU1           0.4
     50 H          -2.2594   -5.9929    4.4742 H       0  UNK0          0.36
     51 HXT         3.6732    4.4082   -2.7757 H       1  GLU1       0.45999999999999996
@<TRIPOS>BOND
     1    31    18    2
     2    32    18    1
     3    32    51    1
     4    18    12    1
     5    28    13   ar
     6    49    24    1
     7    24    12    1
     8    24    16   am
     9    12    45    1
    10    12     5    1
    11    41     7    1
    12    34     2    1
    13    16     9    1
    14    16    29    2
    15     2     9   ar
    16     2     4   ar
    17     9     1   ar
    18    36     4    1
    19     4    10   ar
    20     1    33    1
    21     1     3   ar
    22    10     3   ar
    23    10    21    1
    24    37     5    1
    25    13    27   ar
    26    13     6    1
    27     3    35    1
    28    47    21    1
    29     7    21    1
    30     7    42    1
    31     7    11    1
    32     5     6    1
    33     5    38    1
    34    30    17    2
    35    23    11    2
    36    23    14    1
    37     6    40    1
    38     6    39    1
    39    11     8    1
    40    17    14   ar
    41    17    26   ar
    42    14    15   ar
    43    26    19   ar
    44     8    44    1
    45     8    43    1
    46     8    22    1
    47    15    22    1
    48    15    25   ar
    49    22    48    1
    50    19    25   ar
    51    19    20    1
    52    25    50    1
    53    46    20    1
