@<TRIPOS>MOLECULE
OZSITQMWYBNPMW-GDLZYMKVSA-L	11085283	-2159.643376021954
 99 98 0 0 0
SMALL
MULLIKEN NwChem

@<TRIPOS>ATOM
      1 C          10.8374   -0.8385    0.1402 C.3     1  LIG1      -0.45999999999999996
      2 C          -9.4253    0.4847   -2.6541 C.3     1  LIG1      -0.45999999999999996
      3 C          10.1934    0.3498   -0.5812 C.3     1  LIG1        -0.25
      4 C          -8.4769   -0.1634   -3.6730 C.3     1  LIG1        -0.25
      5 C           9.4476   -0.0660   -1.8551 C.3     1  LIG1        -0.25
      6 C          -6.9783    0.1181   -3.4202 C.3     1  LIG1      -0.2599999999999998
      7 C           8.8104    1.0999   -2.6274 C.3     1  LIG1      -0.2599999999999998
      8 C          -6.2450   -0.8699   -2.4997 C.3     1  LIG1      -0.28000000000000025
      9 C           7.7165    1.9003   -1.8949 C.3     1  LIG1      -0.2699999999999996
     10 C          -6.7779   -0.9718   -1.0622 C.3     1  LIG1      -0.2599999999999998
     11 C           6.4583    1.1011   -1.4917 C.3     1  LIG1      -0.2599999999999998
     12 C          -5.8182   -1.7851   -0.1840 C.3     1  LIG1      -0.2999999999999998
     13 C           6.5035    0.4679   -0.0911 C.3     1  LIG1      -0.2699999999999996
     14 C          -6.1174   -1.7646    1.3230 C.3     1  LIG1      -0.2699999999999996
     15 C           5.2308   -0.3102    0.2862 C.3     1  LIG1      -0.2599999999999998
     16 C          -6.1126   -0.3586    1.9621 C.3     1  LIG1      -0.2599999999999998
     17 C           3.9836    0.5638    0.4816 C.3     1  LIG1      -0.2699999999999996
     18 C          -4.9388    0.5159    1.4950 C.3     1  LIG1        -0.25
     19 C           2.6980   -0.2052    0.8266 C.3     1  LIG1      -0.2699999999999996
     20 C          -4.5983    1.7096    2.3933 C.3     1  LIG1      -0.28000000000000025
     21 C           2.7556   -1.0015    2.1505 C.3     1  LIG1      -0.2999999999999998
     22 C          -3.8587    1.3640    3.7019 C.3     1  LIG1      -0.2699999999999996
     23 C           3.2460   -2.4704    2.0320 C.3     1  LIG1      -0.2599999999999998
     24 C          -2.5585    0.5679    3.4502 C.3     1  LIG1      -0.2999999999999998
     25 C           2.1095   -3.5065    2.0201 C.3     1  LIG1       -0.3700000000000001
     26 C          -2.7450   -0.9722    3.5814 C.3     1  LIG1       -0.34999999999999964
     27 C          -1.0102   -3.4701    0.0137 C.3     1  LIG1       -0.08999999999999986
     28 C          -0.6811   -0.8974    0.0912 C.3     1  LIG1       -0.08000000000000007
     29 C          -1.6186   -2.1053    0.2594 C.3     1  LIG1       0.08000000000000007
     30 C           1.2819   -3.4673    0.7433 C.2     1  LIG1       0.6600000000000001
     31 C          -1.7415   -1.6598    2.6787 C.2     1  LIG1       0.6299999999999999
     32 O           1.7311   -3.2027   -0.3572 O.2     1  LIG1      -0.5399999999999991
     33 O          -0.5605   -1.7706    2.9664 O.2     1  LIG1      -0.5199999999999996
     34 O          -3.3064   -0.2795   -1.2463 O.3     1  LIG1        -0.75
     35 O          -1.3171    1.1494   -2.0888 O.2     1  LIG1      -0.7699999999999996
     36 O          -2.9846    2.1285   -0.3085 O.3     1  LIG1        -0.75
     37 O           0.0103   -3.8043    0.9958 O.3     1  LIG1      -0.46000000000000085
     38 O          -1.3428    0.2912    0.3724 O.3     1  LIG1      -0.6500000000000004
     39 O          -2.3279   -2.0730    1.5442 O.3     1  LIG1      -0.4900000000000002
     40 P          -2.3470    0.9224   -0.9912 P.3     1  LIG1       1.0099999999999998
     41 H          11.3764   -0.5217    1.0413 H       1  LIG1          0.14
     42 H          11.5502   -1.3596   -0.5123 H       1  LIG1          0.14
     43 H          10.0765   -1.5672    0.4456 H       1  LIG1       0.15000000000000002
     44 H          -9.3164    1.5770   -2.6692 H       1  LIG1          0.14
     45 H         -10.4770    0.2496   -2.8727 H       1  LIG1          0.14
     46 H          -9.2069    0.1515   -1.6360 H       1  LIG1       0.15000000000000002
     47 H           9.5024    0.8549    0.1043 H       1  LIG1          0.14
     48 H          10.9652    1.0900   -0.8407 H       1  LIG1          0.13
     49 H          -8.6428   -1.2515   -3.6870 H       1  LIG1          0.13
     50 H          -8.7574    0.1978   -4.6750 H       1  LIG1          0.13
     51 H           8.6772   -0.8057   -1.6014 H       1  LIG1          0.14
     52 H          10.1538   -0.5848   -2.5213 H       1  LIG1          0.13
     53 H          -6.8651    1.1348   -3.0158 H       1  LIG1          0.12
     54 H          -6.4547    0.1249   -4.3868 H       1  LIG1          0.12
     55 H           8.3789    0.7040   -3.5580 H       1  LIG1          0.13
     56 H           9.6090    1.7940   -2.9329 H       1  LIG1          0.13
     57 H          -6.2687   -1.8710   -2.9644 H       1  LIG1       0.10999999999999999
     58 H          -5.1881   -0.5703   -2.4248 H       1  LIG1          0.14
     59 H           8.1395    2.3890   -1.0057 H       1  LIG1          0.13
     60 H           7.4183    2.7180   -2.5652 H       1  LIG1          0.13
     61 H          -7.7922   -1.4084   -1.0366 H       1  LIG1          0.12
     62 H          -6.8640    0.0445   -0.6555 H       1  LIG1          0.13
     63 H           5.5903    1.7679   -1.5381 H       1  LIG1          0.14
     64 H           6.2677    0.3156   -2.2385 H       1  LIG1          0.13
     65 H          -4.8113   -1.3812   -0.3608 H       1  LIG1       0.19999999999999996
     66 H          -5.8151   -2.8318   -0.5328 H       1  LIG1       0.09999999999999998
     67 H           7.3675   -0.2054   -0.0155 H       1  LIG1          0.14
     68 H           6.6741    1.2640    0.6509 H       1  LIG1          0.13
     69 H          -5.3379   -2.3662    1.8135 H       1  LIG1          0.12
     70 H          -7.0797   -2.2631    1.5393 H       1  LIG1       0.10999999999999999
     71 H           5.0263   -1.0679   -0.4846 H       1  LIG1          0.13
     72 H           5.4274   -0.8657    1.2127 H       1  LIG1          0.14
     73 H          -6.0975   -0.4786    3.0585 H       1  LIG1          0.12
     74 H          -7.0615    0.1568    1.7400 H       1  LIG1          0.12
     75 H           3.7940    1.1464   -0.4294 H       1  LIG1          0.13
     76 H           4.1947    1.2980    1.2768 H       1  LIG1          0.13
     77 H          -4.0419   -0.0892    1.3473 H       1  LIG1       0.15000000000000002
     78 H          -5.1149    0.9013    0.4883 H       1  LIG1          0.12
     79 H           2.4458   -0.8819    0.0039 H       1  LIG1       0.15000000000000002
     80 H           1.8740    0.5154    0.8751 H       1  LIG1          0.13
     81 H          -5.5116    2.2825    2.6361 H       1  LIG1       0.10999999999999999
     82 H          -3.9479    2.3447    1.7794 H       1  LIG1          0.13
     83 H           3.4053   -0.4610    2.8566 H       1  LIG1          0.13
     84 H           1.7574   -1.0074    2.6017 H       1  LIG1       0.16000000000000003
     85 H          -4.5125    0.8070    4.3950 H       1  LIG1          0.13
     86 H          -3.6146    2.3054    4.2189 H       1  LIG1          0.13
     87 H           3.9030   -2.7116    2.8802 H       1  LIG1          0.14
     88 H           3.8426   -2.6053    1.1232 H       1  LIG1       0.15000000000000002
     89 H          -2.1887    0.7966    2.4426 H       1  LIG1       0.18000000000000005
     90 H          -1.7685    0.8678    4.1513 H       1  LIG1          0.14
     91 H           1.4304   -3.3556    2.8628 H       1  LIG1       0.18000000000000005
     92 H           2.5290   -4.5214    2.1011 H       1  LIG1       0.18000000000000005
     93 H          -2.5751   -1.2900    4.6181 H       1  LIG1       0.16000000000000003
     94 H          -3.7569   -1.2592    3.2901 H       1  LIG1       0.18000000000000005
     95 H          -0.5799   -3.5047   -0.9912 H       1  LIG1       0.18000000000000005
     96 H          -1.7605   -4.2578    0.1279 H       1  LIG1       0.18000000000000005
     97 H           0.1764   -1.0024    0.7637 H       1  LIG1       0.16000000000000003
     98 H          -0.3085   -0.9235   -0.9470 H       1  LIG1          0.12
     99 H          -2.4268   -1.9187   -0.4643 H       1  LIG1       0.19999999999999996
@<TRIPOS>BOND
     1    50     4    1
     2    54     6    1
     3    49     4    1
     4     4     6    1
     5     4     2    1
     6    55     7    1
     7     6    53    1
     8     6     8    1
     9    57     8    1
    10    56     7    1
    11    45     2    1
    12    44     2    1
    13     2    46    1
    14     7     9    1
    15     7     5    1
    16    60     9    1
    17    52     5    1
    18     8    58    1
    19     8    10    1
    20    64    11    1
    21    35    40    2
    22     9    11    1
    23     9    59    1
    24     5    51    1
    25     5     3    1
    26    63    11    1
    27    11    13    1
    28    34    40    1
    29    10    61    1
    30    10    62    1
    31    10    12    1
    32    40    36    1
    33    40    38    1
    34    95    27    1
    35    98    28    1
    36    48     3    1
    37     3    47    1
    38     3     1    1
    39    66    12    1
    40    42     1    1
    41    71    15    1
    42    99    29    1
    43    75    17    1
    44    65    12    1
    45    32    30    2
    46    12    14    1
    47    13    67    1
    48    13    15    1
    49    13    68    1
    50    79    19    1
    51    27    96    1
    52    27    29    1
    53    27    37    1
    54    28    29    1
    55    28    38    1
    56    28    97    1
    57     1    43    1
    58     1    41    1
    59    29    39    1
    60    15    17    1
    61    15    72    1
    62    17    19    1
    63    17    76    1
    64    78    18    1
    65    30    37    1
    66    30    25    1
    67    19    80    1
    68    19    21    1
    69    88    23    1
    70    14    70    1
    71    14    69    1
    72    14    16    1
    73    77    18    1
    74    18    16    1
    75    18    20    1
    76    39    31    1
    77    74    16    1
    78    82    20    1
    79    16    73    1
    80    25    23    1
    81    25    92    1
    82    25    91    1
    83    23    21    1
    84    23    87    1
    85    21    84    1
    86    21    83    1
    87    20    81    1
    88    20    22    1
    89    89    24    1
    90    31    33    2
    91    31    26    1
    92    94    26    1
    93    24    26    1
    94    24    22    1
    95    24    90    1
    96    26    93    1
    97    22    86    1
    98    22    85    1
