@<TRIPOS>MOLECULE
PAHGJZDQXIOYTH-UHFFFAOYSA-M	6045031	-896.4906484975892
 58 57 0 0 0
SMALL
MULLIKEN NwChem

@<TRIPOS>ATOM
      1 C           1.8652   -2.6369    3.3505 C.3     1  LIG1      -0.45999999999999996
      2 C           1.3678   -3.2809    0.9582 C.3     1  LIG1      -0.46999999999999975
      3 C          -2.5405    0.6733    1.6279 C.3     1  LIG1      -0.4900000000000002
      4 C           1.8031    3.4581   -1.2235 C.3     1  LIG1      -0.46999999999999975
      5 C          -0.7844   -1.0310   -4.1198 C.3     1  LIG1      -0.4500000000000002
      6 C          -0.9624   -1.3166    3.4523 C.3     1  LIG1      -0.2699999999999996
      7 C           1.0228    2.3459    1.6030 C.3     1  LIG1      -0.28000000000000025
      8 C           1.8130   -0.4136   -1.9363 C.3     1  LIG1      -0.28000000000000025
      9 C          -0.4770   -2.3120    2.3827 C.3     1  LIG1      -0.2599999999999998
     10 C          -0.5797    0.1517    3.1877 C.3     1  LIG1      -0.2699999999999996
     11 C          -0.5064    2.1512    1.5898 C.3     1  LIG1      -0.2699999999999996
     12 C           1.7944    1.5906    0.5036 C.3     1  LIG1      -0.28000000000000025
     13 C           2.1779    1.0863   -1.9696 C.3     1  LIG1      -0.2599999999999998
     14 C           0.3042   -0.7000   -1.8355 C.3     1  LIG1      -0.3099999999999996
     15 C           1.0377   -2.3096    2.0995 C.3     1  LIG1      -0.08000000000000007
     16 C          -1.0176    0.7137    1.8215 C.3     1  LIG1      -0.07000000000000028
     17 C           1.4542    1.9880   -0.9463 C.3     1  LIG1      -0.09999999999999964
     18 C          -0.5915   -0.0829   -2.9351 C.3     1  LIG1       -0.1299999999999999
     19 C          -1.9512    0.3976   -2.3026 C.2     1  LIG1       0.4900000000000002
     20 O          -1.8088    1.2565   -1.3764 O.co2   1  LIG1      -0.6199999999999992
     21 O          -3.0050   -0.0957   -2.7540 O.co2   1  LIG1      -0.6600000000000001
     22 H           1.5940   -3.6250    3.7483 H       1  LIG1          0.14
     23 H           1.7084   -1.9015    4.1474 H       1  LIG1       0.15000000000000002
     24 H           2.9379   -2.6534    3.1197 H       1  LIG1          0.14
     25 H           1.1009   -4.3113    1.2325 H       1  LIG1          0.14
     26 H           0.8167   -3.0189    0.0489 H       1  LIG1       0.15000000000000002
     27 H           2.4384   -3.2646    0.7179 H       1  LIG1          0.14
     28 H          -3.0440    1.3167    2.3660 H       1  LIG1          0.12
     29 H          -2.7793    1.0067    0.6121 H       1  LIG1       0.15000000000000002
     30 H          -2.9376   -0.3424    1.7472 H       1  LIG1          0.13
     31 H           2.8750    3.6517   -1.0643 H       1  LIG1          0.13
     32 H           1.5663    3.7230   -2.2615 H       1  LIG1          0.14
     33 H           1.2398    4.1412   -0.5782 H       1  LIG1          0.14
     34 H          -1.3540   -1.9114   -3.8019 H       1  LIG1          0.13
     35 H          -1.3675   -0.5493   -4.9116 H       1  LIG1          0.13
     36 H           0.1773   -1.3630   -4.5419 H       1  LIG1          0.13
     37 H          -2.0537   -1.4037    3.5285 H       1  LIG1          0.13
     38 H          -0.5706   -1.6126    4.4363 H       1  LIG1          0.13
     39 H           1.2344    3.4211    1.5204 H       1  LIG1          0.13
     40 H           1.4303    2.0465    2.5796 H       1  LIG1          0.13
     41 H           2.2283   -0.8877   -2.8388 H       1  LIG1          0.12
     42 H           2.3180   -0.8972   -1.0862 H       1  LIG1          0.13
     43 H          -1.0042   -2.1096    1.4419 H       1  LIG1          0.13
     44 H          -0.7722   -3.3296    2.6846 H       1  LIG1          0.12
     45 H          -1.0143    0.7772    3.9837 H       1  LIG1          0.12
     46 H           0.5091    0.2491    3.2933 H       1  LIG1          0.14
     47 H          -0.9091    2.4796    0.6259 H       1  LIG1          0.14
     48 H          -0.9447    2.8052    2.3617 H       1  LIG1       0.10999999999999999
     49 H           2.8757    1.7364    0.6665 H       1  LIG1       0.10999999999999999
     50 H           1.6165    0.5160    0.6283 H       1  LIG1       0.15000000000000002
     51 H           1.9533    1.4758   -2.9718 H       1  LIG1          0.13
     52 H           3.2688    1.1934   -1.8446 H       1  LIG1          0.12
     53 H           0.1528   -1.7905   -1.8226 H       1  LIG1          0.13
     54 H          -0.0527   -0.3256   -0.8732 H       1  LIG1       0.17000000000000004
     55 H           1.3197   -1.3031    1.7643 H       1  LIG1       0.15000000000000002
     56 H          -0.5856    0.0881    1.0332 H       1  LIG1          0.14
     57 H           0.3734    1.8639   -1.0995 H       1  LIG1       0.17000000000000004
     58 H          -0.1110    0.8369   -3.2961 H       1  LIG1           0.12
@<TRIPOS>BOND
     1    35     5    1
     2    36     5    1
     3     5    34    1
     4     5    18    1
     5    58    18    1
     6    51    13    1
     7    18    19    1
     8    18    14    1
     9    41     8    1
    10    21    19   ar
    11    19    20   ar
    12    32     4    1
    13    13     8    1
    14    13    52    1
    15    13    17    1
    16     8    14    1
    17     8    42    1
    18    14    53    1
    19    14    54    1
    20     4    31    1
    21     4    17    1
    22     4    33    1
    23    57    17    1
    24    17    12    1
    25    26     2    1
    26    12    50    1
    27    12    49    1
    28    12     7    1
    29    29     3    1
    30    47    11    1
    31    27     2    1
    32     2    25    1
    33     2    15    1
    34    56    16    1
    35    43     9    1
    36    39     7    1
    37    11     7    1
    38    11    16    1
    39    11    48    1
    40     7    40    1
    41     3    30    1
    42     3    16    1
    43     3    28    1
    44    55    15    1
    45    16    10    1
    46    15     9    1
    47    15     1    1
    48     9    44    1
    49     9     6    1
    50    24     1    1
    51    10    46    1
    52    10     6    1
    53    10    45    1
    54     1    22    1
    55     1    23    1
    56     6    37    1
    57     6    38    1
