@<TRIPOS>MOLECULE
PAWSVPVNIXFKOS-IHWYPQMZSA-M	6045032	-361.30374459569055
 13 12 0 0 0
SMALL
MULLIKEN NwChem

@<TRIPOS>ATOM
      1 C           1.3872   -1.0301   -2.0209 C.3     1  LIG1             -0.5
      2 C           0.8240   -0.9095   -0.6306 C.2     1  LIG1      -0.20999999999999996
      3 CA          0.0752    0.1225   -0.2008 C.2     1  LIG1       0.1900000000000004
      4 C          -0.4853    0.1985    1.2524 C.2     1  LIG1       0.4900000000000002
      5 N          -0.2835    1.2324   -0.9921 N.pl3   1  LIG1      -0.8300000000000001
      6 O          -1.2913    1.1591    1.4352 O.co2   1  LIG1      -0.6799999999999997
      7 OXT        -0.1074   -0.6834    2.0545 O.co2   1  LIG1      -0.6699999999999999
      8 H           1.5306   -0.0389   -2.4756 H       1  LIG1       0.15000000000000002
      9 H           0.7432   -1.6062   -2.7116 H       1  LIG1       0.15000000000000002
     10 H           2.3639   -1.5372   -2.0238 H       1  LIG1       0.15000000000000002
     11 H           1.0224   -1.6924    0.0951 H       1  LIG1       0.10999999999999999
     12 H1         -0.6162    0.9855   -1.9200 H       1  LIG1       0.32999999999999996
     13 H2         -1.0013    1.7197   -0.4458 H       1  LIG1       0.31999999999999995
@<TRIPOS>BOND
     1     9     1    1
     2     8     1    1
     3    10     1    1
     4     1     2    1
     5    12     5    1
     6     5    13    1
     7     5     3    1
     8     2     3    2
     9     2    11    1
    10     3     4    1
    11     4     6   ar
    12     4     7   ar
