@<TRIPOS>MOLECULE
PBSYQNUIZQXWAE-UWVGGRQHSA-M	6045033	-1785.832746947294
 48 48 0 0 0
SMALL
MULLIKEN NwChem

@<TRIPOS>ATOM
      1 C          -3.5775    3.0309    0.8093 C.ar    1  UNK1      -0.20000000000000018
      2 C           2.7440   -2.5715   -1.8220 C.3     1  UNK1      -0.2599999999999998
      3 C          -2.7798    4.0441    1.3480 C.ar    1  UNK1      -0.20000000000000018
      4 C           2.1778   -1.3195   -1.1304 C.3     1  UNK1       -0.3799999999999999
      5 C          -1.7294    2.3336   -0.5659 C.ar    1  UNK1      -0.20999999999999996
      6 CA         -1.0685   -1.1816    1.6508 C.3     2  GLY2       -0.2400000000000002
      7 C           1.2421    1.4715   -0.2129 C.3     1  UNK1       -0.46999999999999975
      8 C          -3.0342    2.1275   -0.1093 C.ar    1  UNK1       0.33999999999999986
      9 C           1.7994   -3.7952   -1.8876 C.3     1  UNK1       -0.08999999999999986
     10 C           1.3416    0.8366    1.1992 C.3     1  UNK1       -0.019999999999999574
     11 C          -1.4291    4.1499    1.0068 C.ar    1  UNK1       0.33000000000000007
     12 C          -0.9080    3.2867    0.0258 C.ar    1  UNK1       -0.16000000000000014
     13 C           2.1468   -1.3723    0.3934 C.2     1  UNK1       0.5599999999999996
     14 C          -1.0554   -1.4312    0.1235 C.2     2  GLY2       0.6200000000000001
     15 C           0.0251    0.9483    1.9850 C.2     1  UNK1       0.5300000000000002
     16 C           0.7713   -3.5698   -3.0245 C.2     1  UNK1       0.5800000000000001
     17 N           2.6121   -4.9976   -2.1383 N.3     1  UNK1      -0.7599999999999998
     18 N          -0.9666    0.1804    2.1493 N.2     2  GLY2      -0.5099999999999998
     19 N           1.8255   -0.5264    1.2885 N.2     1  UNK1      -0.5300000000000002
     20 O          -3.7440    1.0452   -0.5279 O.3     1  UNK1      -0.7300000000000004
     21 O          -0.6468    5.0530    1.6841 O.3     1  UNK1      -0.6899999999999995
     22 O           2.5810   -2.5784    0.8565 O.2     1  UNK1      -0.6199999999999992
     23 OXT        -0.5805   -2.5615   -0.2046 O.co2   2  GLY2      -0.6400000000000006
     24 O          -1.5060   -0.5682   -0.6687 O.co2   2  GLY2      -0.6199999999999992
     25 O           0.0049    2.1624    2.6245 O.2     1  UNK1      -0.6199999999999992
     26 O           1.0389   -3.9331   -4.1622 O.2     1  UNK1      -0.5500000000000007
     27 O          -0.3538   -2.9370   -2.7412 O.3     1  UNK1      -0.6400000000000006
     28 S           0.8525    3.2774   -0.3289 S.3     1  UNK1      0.0600000000000005
     29 H          -4.6026    2.8946    1.1409 H       1  UNK1       0.15000000000000002
     30 H           3.0253   -2.3014   -2.8487 H       1  UNK1       0.15000000000000002
     31 H           3.6549   -2.9010   -1.3157 H       1  UNK1       0.16000000000000003
     32 H          -3.1725    4.7197    2.1027 H       1  UNK1       0.15000000000000002
     33 H           1.1637   -1.1155   -1.4853 H       1  UNK1       0.18999999999999995
     34 H           2.7869   -0.4570   -1.4187 H       1  UNK1       0.18999999999999995
     35 H          -1.3388    1.6586   -1.3145 H       1  UNK1       0.17000000000000004
     36 HA1        -0.2855   -1.8090    2.0852 H       2  GLY2       0.17000000000000004
     37 HA2        -2.0289   -1.5778    2.0094 H       2  GLY2       0.17000000000000004
     38 H           0.5251    0.9217   -0.8209 H       1  UNK1       0.21999999999999997
     39 H           2.2233    1.4070   -0.6889 H       1  UNK1       0.20999999999999996
     40 H           1.2949   -3.9023   -0.9255 H       1  UNK1       0.17000000000000004
     41 H           2.0521    1.4495    1.7700 H       1  UNK1       0.18000000000000005
     42 H           2.0045   -5.8110   -2.0268 H       1  UNK1       0.31999999999999995
     43 H           2.8178   -4.9848   -3.1410 H       1  UNK1       0.31000000000000005
     44 H           0.2654    4.7064    1.6413 H       1  UNK1       0.43999999999999995
     45 H           2.4787   -2.5112    1.8244 H       1  UNK1       0.43000000000000005
     46 H          -3.0690    0.3293   -0.6609 H       1  UNK1       0.43999999999999995
     47 H          -0.9026    2.2424    2.9746 H       1  UNK1       0.42000000000000004
     48 H          -0.4831   -2.7623   -1.7340 H       1  UNK1       0.44999999999999996
@<TRIPOS>BOND
     1    26    16    2
     2    43    17    1
     3    16    27    1
     4    16     9    1
     5    30     2    1
     6    27    48    1
     7    17    42    1
     8    17     9    1
     9     9     2    1
    10     9    40    1
    11     2    31    1
    12     2     4    1
    13    33     4    1
    14    34     4    1
    15    35     5    1
    16     4    13    1
    17    38     7    1
    18    39     7    1
    19    24    14   ar
    20    46    20    1
    21     5     8   ar
    22     5    12   ar
    23    20     8    1
    24    28     7    1
    25    28    12    1
    26     7    10    1
    27    23    14   ar
    28     8     1   ar
    29    12    11   ar
    30    14     6    1
    31    13    22    1
    32    13    19    2
    33     1    29    1
    34     1     3   ar
    35    22    45    1
    36    11     3   ar
    37    11    21    1
    38    10    19    1
    39    10    41    1
    40    10    15    1
    41     3    32    1
    42    44    21    1
    43     6    37    1
    44     6    36    1
    45     6    18    1
    46    15    18    2
    47    15    25    1
    48    25    47    1
