@<TRIPOS>MOLECULE
PBYOKOGRHHZTHQ-UHFFFAOYSA-L	6045034	-1203.2008736831035
 33 32 0 0 0
SMALL
MULLIKEN NwChem

@<TRIPOS>ATOM
      1 C          -1.1906    3.1208   -3.5301 C.3     1  LIG1      -0.5999999999999996
      2 C          -0.1283    0.7657   -0.9520 C.3     1  LIG1      -0.28000000000000025
      3 C          -1.6652    0.8339   -0.8914 C.3     1  LIG1      -0.2699999999999996
      4 C           0.5840    0.8860    0.4073 C.3     1  LIG1      -0.29000000000000004
      5 C          -2.2377    2.0710   -0.1826 C.3     1  LIG1        -0.25
      6 C           0.1606   -0.1516    1.4635 C.3     1  LIG1      -0.2400000000000002
      7 C          -1.8084    3.4295   -0.7480 C.3     1  LIG1      -0.41999999999999993
      8 C           0.1819   -1.6123    0.9806 C.3     1  LIG1         -0.25
      9 C           1.5130   -1.9953    0.3357 C.2     1  LIG1       0.3700000000000001
     10 C          -0.2818   -2.6211    2.1462 C.2     1  LIG1           0.5
     11 C           2.8458   -1.8324    1.1157 C.2     1  LIG1       0.46999999999999975
     12 O           1.5392   -2.3516   -0.8483 O.2     1  LIG1      -0.5600000000000005
     13 O          -0.6613   -3.7423    1.7326 O.co2   1  LIG1      -0.6699999999999999
     14 O          -0.2626   -2.1592    3.3139 O.co2   1  LIG1      -0.6500000000000004
     15 O           3.2063   -0.6219    1.2285 O.co2   1  LIG1      -0.6300000000000008
     16 O           3.4335   -2.8709    1.4849 O.co2   1  LIG1      -0.6500000000000004
     17 S          -2.4510    3.8645   -2.4294 S.3     1  LIG1      -0.010000000000001563
     18 H          -1.4183    3.4566   -4.5472 H       1  LIG1       0.18999999999999995
     19 H          -1.2114    2.0303   -3.4950 H       1  LIG1       0.19999999999999996
     20 H          -0.1887    3.4661   -3.2580 H       1  LIG1       0.19999999999999996
     21 H           0.1573   -0.1924   -1.4017 H       1  LIG1          0.13
     22 H           0.2526    1.5491   -1.6277 H       1  LIG1          0.13
     23 H          -2.0278   -0.0521   -0.3576 H       1  LIG1          0.14
     24 H          -2.0907    0.7723   -1.9051 H       1  LIG1          0.14
     25 H           1.6611    0.7518    0.2576 H       1  LIG1          0.14
     26 H           0.4417    1.9051    0.8126 H       1  LIG1          0.12
     27 H          -1.9191    2.0484    0.8681 H       1  LIG1       0.15000000000000002
     28 H          -3.3358    2.0243   -0.1801 H       1  LIG1          0.14
     29 H           0.8330   -0.0747    2.3206 H       1  LIG1          0.12
     30 H          -0.8502    0.0599    1.8458 H       1  LIG1          0.13
     31 H          -0.7175    3.5190   -0.7750 H       1  LIG1       0.18999999999999995
     32 H          -2.1822    4.2383   -0.1082 H       1  LIG1       0.18000000000000005
     33 H          -0.5567   -1.7634    0.1815 H       1  LIG1           0.13
@<TRIPOS>BOND
     1    18     1    1
     2     1    19    1
     3     1    20    1
     4     1    17    1
     5    17     7    1
     6    24     3    1
     7    22     2    1
     8    21     2    1
     9     2     3    1
    10     2     4    1
    11     3    23    1
    12     3     5    1
    13    12     9    2
    14    31     7    1
    15     7     5    1
    16     7    32    1
    17     5    28    1
    18     5    27    1
    19    33     8    1
    20    25     4    1
    21     9     8    1
    22     9    11    1
    23     4    26    1
    24     4     6    1
    25     8     6    1
    26     8    10    1
    27    11    15   ar
    28    11    16   ar
    29     6    30    1
    30     6    29    1
    31    13    10   ar
    32    10    14   ar
