@<TRIPOS>MOLECULE
PCDQPRRSZKQHHS-XVFCMESISA-J	11085258	-2592.2668625642227
 41 42 0 0 0
SMALL
MULLIKEN NwChem

@<TRIPOS>ATOM
      1 C          -6.0847    1.6649    2.4730 C.ar    1  LIG1      -0.2699999999999996
      2 C          -5.0808    0.9085    1.9758 C.ar    1  LIG1       0.07000000000000028
      3 C          -0.0426    0.8100   -0.5660 C.3     1  LIG1       -0.05999999999999961
      4 C          -1.3547    0.0165   -0.4095 C.3     1  LIG1       0.08999999999999986
      5 C          -6.7068    2.6871    1.6174 C.ar    1  LIG1       0.41000000000000014
      6 C          -2.1517   -0.2618   -1.7004 C.3     1  LIG1       0.1200000000000001
      7 C          -3.6194   -0.4160   -1.1706 C.3     1  LIG1       0.07000000000000028
      8 C          -3.5374    0.1799    0.2603 C.3     1  LIG1       0.28000000000000025
      9 C          -5.1430    2.1623   -0.1125 C.ar    1  LIG1       0.6500000000000004
     10 N          -7.7434    3.4100    2.0099 N.pl3   1  LIG1      -0.8099999999999996
     11 N          -6.1766    2.8803    0.3698 N.ar    1  LIG1      -0.6699999999999999
     12 N          -4.6077    1.0636    0.7012 N.ar    1  LIG1      -0.5099999999999998
     13 O          -1.7876   -1.4417   -2.3803 O.3     1  LIG1        -0.75
     14 O          -3.9562   -1.8005   -1.1149 O.3     1  LIG1      -0.7200000000000006
     15 O          -4.6147    2.3416   -1.2187 O.2     1  LIG1      -0.6500000000000004
     16 O           6.0043    0.7691    1.1824 O.3     1  LIG1      -0.7699999999999996
     17 O           5.1334   -0.2432    3.3819 O.3     1  LIG1      -0.6899999999999995
     18 O           6.8052   -1.6012    1.8956 O.2     1  LIG1      -0.7100000000000009
     19 O           2.1362   -0.9418   -3.2400 O.2     1  LIG1      -0.6699999999999999
     20 O           0.5243   -2.0253   -1.4630 O.3     1  LIG1      -0.7300000000000004
     21 O           5.1310   -0.2372   -1.1384 O.2     1  LIG1      -0.7100000000000009
     22 O           4.2940   -2.7304   -0.9918 O.3     1  LIG1      -0.6699999999999999
     23 O           0.6990    0.5017   -1.7306 O.3     1  LIG1      -0.5800000000000001
     24 O          -2.2659    0.8054    0.3886 O.3     1  LIG1      -0.5500000000000007
     25 O           4.3396   -1.1789    1.1104 O.3     1  LIG1      -0.6699999999999999
     26 O           2.6174   -0.7639   -0.6493 O.3     1  LIG1      -0.6500000000000004
     27 P           5.6654   -0.6142    2.0185 P.3     1  LIG1       1.0299999999999994
     28 P           1.5512   -0.9514   -1.8641 P.3     1  LIG1       1.1400000000000006
     29 P           4.2344   -1.3059   -0.5284 P.3     1  LIG1       1.1099999999999994
     30 H          -6.4354    1.5024    3.4915 H       1  LIG1          0.14
     31 H          -4.5955    0.1291    2.5604 H       1  LIG1       0.18999999999999995
     32 H           0.5742    0.6892    0.3348 H       1  LIG1       0.16000000000000003
     33 H          -0.3293    1.8680   -0.6479 H       1  LIG1       0.16000000000000003
     34 H          -1.1589   -0.9468    0.0829 H       1  LIG1       0.15000000000000002
     35 H          -2.0878    0.6180   -2.3546 H       1  LIG1          0.14
     36 H          -4.3397    0.1295   -1.7820 H       1  LIG1       0.15000000000000002
     37 H          -3.5788   -0.6953    0.9302 H       1  LIG1       0.15000000000000002
     38 H          -7.9636    3.1028    2.9685 H       1  LIG1          0.27
     39 H          -0.8319   -1.7143   -2.0750 H       1  LIG1          0.47
     40 H          -3.1805   -2.1904   -1.5938 H       1  LIG1       0.42000000000000004
     41 H           5.7837    0.5577    0.2279 H       1  LIG1       0.44999999999999996
@<TRIPOS>BOND
     1    19    28    2
     2    13    39    1
     3    13     6    1
     4    35     6    1
     5    28    23    1
     6    28    20    1
     7    28    26    1
     8    36     7    1
     9    23     3    1
    10     6     7    1
    11     6     4    1
    12    40    14    1
    13    15     9    2
    14     7    14    1
    15     7     8    1
    16    21    29    2
    17    22    29    1
    18    26    29    1
    19    33     3    1
    20     3     4    1
    21     3    32    1
    22    29    25    1
    23     4    34    1
    24     4    24    1
    25     9    11   ar
    26     9    12   ar
    27    41    16    1
    28     8    24    1
    29     8    12    1
    30     8    37    1
    31    11     5   ar
    32    12     2   ar
    33    25    27    1
    34    16    27    1
    35     5    10    1
    36     5     1   ar
    37    18    27    2
    38     2     1   ar
    39     2    31    1
    40    10    38    1
    41    27    17    1
    42     1    30    1
