@<TRIPOS>MOLECULE
PDACUKOKVHBVHJ-XVFCMESISA-M	11085256	-1344.8740722023813
 32 33 0 0 0
SMALL
MULLIKEN NwChem

@<TRIPOS>ATOM
      1 C          -4.1467   -2.2728    0.9560 C.ar    1  LIG1       -0.1200000000000001
      2 C           1.6013   -0.6936   -0.4659 C.3     1  LIG1       -0.05999999999999961
      3 C          -2.2619   -2.1015   -0.0544 C.ar    1  LIG1       0.16999999999999993
      4 C           0.5934    0.3157    0.0660 C.3     1  LIG1       0.1299999999999999
      5 C          -3.7693   -0.9556    1.0862 C.ar    1  LIG1       0.4299999999999997
      6 C           0.2795    0.1438    1.5518 C.3     1  LIG1       0.04999999999999982
      7 C          -1.1188    0.7794    1.6710 C.3     1  LIG1       0.08999999999999986
      8 C          -1.7419    0.3740    0.3201 C.3     1  LIG1       0.2599999999999998
      9 N          -4.3187    0.1357    1.7893 N.pl3   1  LIG1      -0.8300000000000001
     10 N          -3.1946   -2.9784    0.2464 N.ar    1  LIG1      -0.5199999999999996
     11 N          -2.5514   -0.8502    0.4424 N.ar    1  LIG1      -0.4500000000000002
     12 O           1.2557    0.8287    2.3336 O.3     1  LIG1      -0.6600000000000001
     13 O          -1.0117    2.1897    1.7406 O.3     1  LIG1      -0.6899999999999995
     14 O           3.4897    0.7453   -3.4701 O.2     1  LIG1      -0.6600000000000001
     15 O           4.4478   -0.0065   -1.1565 O.3     1  LIG1      -0.7400000000000002
     16 O           2.8393    1.9550   -1.1878 O.3     1  LIG1      -0.7200000000000006
     17 O           2.0114   -0.4393   -1.7854 O.3     1  LIG1      -0.5899999999999999
     18 O          -0.6967    0.1362   -0.5807 O.3     1  LIG1      -0.5500000000000007
     19 P           3.1997    0.7375   -2.0080 P.3     1  LIG1       1.0700000000000003
     20 H          -5.0434   -2.7445    1.3391 H       1  LIG1       0.15000000000000002
     21 H           1.1411   -1.6935   -0.4428 H       1  LIG1       0.17000000000000004
     22 H           2.4579   -0.6997    0.2264 H       1  LIG1       0.15000000000000002
     23 H          -1.3760   -2.2726   -0.6461 H       1  LIG1       0.18999999999999995
     24 H           0.9737    1.3220   -0.1389 H       1  LIG1       0.17000000000000004
     25 H           0.2360   -0.9241    1.8134 H       1  LIG1       0.18000000000000005
     26 H          -1.7123    0.4006    2.5126 H       1  LIG1       0.17000000000000004
     27 H          -2.3899    1.1810   -0.0491 H       1  LIG1       0.18000000000000005
     28 H          -5.2405   -0.1023    2.1415 H       1  LIG1          0.36
     29 H          -4.4021    0.9714    1.2129 H       1  LIG1          0.36
     30 H           1.1328    0.5608    3.2576 H       1  LIG1       0.44999999999999996
     31 H          -0.0744    2.3732    1.9394 H       1  LIG1       0.43000000000000005
     32 H           4.6536    0.6374   -0.4616 H       1  LIG1       0.43999999999999995
@<TRIPOS>BOND
     1    14    19    2
     2    19    17    1
     3    19    16    1
     4    19    15    1
     5    17     2    1
     6    15    32    1
     7    23     3    1
     8    18     4    1
     9    18     8    1
    10     2    21    1
    11     2     4    1
    12     2    22    1
    13    24     4    1
    14     3    10   ar
    15     3    11   ar
    16    27     8    1
    17     4     6    1
    18    10     1   ar
    19     8    11    1
    20     8     7    1
    21    11     5   ar
    22     1     5   ar
    23     1    20    1
    24     5     9    1
    25    29     9    1
    26     6     7    1
    27     6    25    1
    28     6    12    1
    29     7    13    1
    30     7    26    1
    31    13    31    1
    32     9    28    1
    33    12    30    1
