@<TRIPOS>MOLECULE
PDGXJDXVGMHUIR-UJURSFKZSA-M	6045039	-536.1796320293016
 21 20 0 0 0
SMALL
MULLIKEN NwChem

@<TRIPOS>ATOM
      1 C           1.7349    2.4508   -0.0020 C.3     1  LIG1      -0.45999999999999996
      2 C          -0.2368    0.7315    1.8023 C.3     1  LIG1      -0.4800000000000004
      3 C           1.2091    1.0397   -0.2772 C.3     1  LIG1      -0.28000000000000025
      4 C          -0.7656   -0.5534   -0.3168 C.3     1  LIG1       0.009999999999999787
      5 C           0.2869   -1.7168   -0.3105 C.2     1  LIG1       0.5499999999999998
      6 C          -0.2104    0.7723    0.2774 C.3     1  LIG1       0.33000000000000007
      7 O          -1.1573   -0.3135   -1.6685 O.3     1  LIG1      -0.7200000000000006
      8 O           0.6086   -2.0891   -1.4805 O.co2   1  LIG1      -0.6699999999999999
      9 O           0.7038   -2.1171    0.7957 O.co2   1  LIG1      -0.6400000000000006
     10 O          -1.0948    1.8298   -0.1467 O.3     1  LIG1      -0.7100000000000009
     11 H           1.0114    3.1958   -0.3486 H       1  LIG1          0.14
     12 H           2.6912    2.6242   -0.5134 H       1  LIG1          0.14
     13 H           1.9002    2.6230    1.0691 H       1  LIG1       0.15000000000000002
     14 H           0.3367   -0.1349    2.1422 H       1  LIG1       0.15000000000000002
     15 H           0.1689    1.6538    2.2355 H       1  LIG1       0.15000000000000002
     16 H          -1.2729    0.6275    2.1453 H       1  LIG1          0.14
     17 H           1.1698    0.8663   -1.3601 H       1  LIG1          0.13
     18 H           1.8883    0.2852    0.1356 H       1  LIG1          0.13
     19 H          -1.6483   -0.8479    0.2710 H       1  LIG1          0.12
     20 H          -0.5202   -0.9444   -2.1156 H       1  LIG1       0.41000000000000003
     21 H          -1.3239    1.5486   -1.0547 H       1  LIG1       0.41000000000000003
@<TRIPOS>BOND
     1    20     7    1
     2     7     4    1
     3     8     5   ar
     4    17     3    1
     5    21    10    1
     6    12     1    1
     7    11     1    1
     8     4     5    1
     9     4    19    1
    10     4     6    1
    11     5     9   ar
    12     3     1    1
    13     3    18    1
    14     3     6    1
    15    10     6    1
    16     1    13    1
    17     6     2    1
    18     2    14    1
    19     2    16    1
    20     2    15    1
