@<TRIPOS>MOLECULE
PEDCQBHIVMGVHV-UHFFFAOYSA-N	6045041	-344.69183349447843
 14 13 0 0 0
SMALL
MULLIKEN NwChem

@<TRIPOS>ATOM
      1 C           0.4991   -0.8977    0.9793 C.3     1  LIG1       -0.07000000000000028
      2 C           0.4999    1.2343   -0.4973 C.3     1  LIG1       -0.07000000000000028
      3 C          -0.0183    0.5332    0.7676 C.3     1  LIG1       0.09999999999999964
      4 O          -0.0613   -1.8271    0.0459 O.3     1  LIG1      -0.6699999999999999
      5 O          -0.0593    0.6910   -1.6971 O.3     1  LIG1      -0.6699999999999999
      6 O          -1.4339    0.5461    0.7869 O.3     1  LIG1      -0.6699999999999999
      7 H           0.1677   -1.2355    1.9652 H       1  LIG1       0.16000000000000003
      8 H           1.6000   -0.9223    0.9641 H       1  LIG1       0.15000000000000002
      9 H           0.1696    2.2766   -0.4664 H       1  LIG1       0.16000000000000003
     10 H           1.6013    1.2277   -0.5236 H       1  LIG1       0.15000000000000002
     11 H           0.3116    1.1305    1.6295 H       1  LIG1       0.15000000000000002
     12 H           0.4858   -1.8326   -0.7514 H       1  LIG1       0.43000000000000005
     13 H           0.4743   -0.0673   -1.9710 H       1  LIG1       0.43000000000000005
     14 H          -1.6988    0.0105    0.0190 H       1  LIG1       0.41000000000000003
@<TRIPOS>BOND
     1    13     5    1
     2     5     2    1
     3    12     4    1
     4    10     2    1
     5     2     9    1
     6     2     3    1
     7    14     6    1
     8     4     1    1
     9     3     6    1
    10     3     1    1
    11     3    11    1
    12     8     1    1
    13     1     7    1
