@<TRIPOS>MOLECULE
PELZSPZCXGTUMR-RTPHHQFDSA-J	11085252	-1820.591155857312
 30 30 0 0 0
SMALL
MULLIKEN NwChem

@<TRIPOS>ATOM
      1 C          -0.8615   -0.0518   -1.2220 C.3     1  LIG1       0.1299999999999999
      2 C           0.5745    0.5622   -1.3222 C.3     1  LIG1       0.07000000000000028
      3 C          -0.6218    0.6288    1.2443 C.3     1  LIG1       0.08000000000000007
      4 C           0.8322    0.1515    1.2174 C.3     1  LIG1       0.13999999999999968
      5 C          -1.4830   -0.1157    0.2150 C.3     1  LIG1       0.08999999999999986
      6 C           1.5721    0.4188   -0.1227 C.3     1  LIG1       0.11000000000000032
      7 O          -0.9608   -1.3231   -1.8572 O.3     1  LIG1      -0.7400000000000002
      8 O           0.4001    1.9849   -1.5894 O.3     1  LIG1      -0.7100000000000009
      9 O          -0.7925    2.0550    0.9818 O.3     1  LIG1      -0.6999999999999993
     10 O           1.5391    0.6492    2.3366 O.3     1  LIG1      -0.7599999999999998
     11 O          -4.4068   -1.4594    0.9321 O.3     1  LIG1      -0.7699999999999996
     12 O          -3.6268   -1.2260   -1.5330 O.2     1  LIG1      -0.7899999999999991
     13 O          -5.2319    0.5527   -0.5078 O.3     1  LIG1      -0.7599999999999998
     14 O           4.9171   -1.5616   -0.1938 O.3     1  LIG1      -0.7699999999999996
     15 O           4.6382    1.0335   -0.2993 O.2     1  LIG1      -0.7799999999999994
     16 O           3.9259   -0.2686    1.8298 O.3     1  LIG1      -0.8000000000000007
     17 O          -2.7734    0.4786    0.2510 O.3     1  LIG1      -0.6699999999999999
     18 O           2.5575   -0.5690   -0.3677 O.3     1  LIG1      -0.6600000000000001
     19 P          -4.1679   -0.5205   -0.2559 P.3     1  LIG1       0.9399999999999995
     20 P           4.1745   -0.3093    0.2837 P.3     1  LIG1       0.9399999999999995
     21 H          -1.4936    0.6657   -1.7655 H       1  LIG1          0.12
     22 H           1.0597    0.1416   -2.2084 H       1  LIG1          0.13
     23 H          -1.0208    0.4333    2.2536 H       1  LIG1          0.13
     24 H           0.7497   -0.9544    1.2689 H       1  LIG1       0.10999999999999999
     25 H          -1.5307   -1.1748    0.5052 H       1  LIG1          0.13
     26 H           2.0603    1.4000   -0.0391 H       1  LIG1       0.10999999999999999
     27 H          -1.9567   -1.4712   -1.7916 H       1  LIG1       0.42000000000000004
     28 H           0.0320    2.3056   -0.7391 H       1  LIG1       0.42000000000000004
     29 H          -1.7325    2.0390    0.6840 H       1  LIG1       0.43000000000000005
     30 H           2.5060    0.3265    2.1874 H       1  LIG1       0.43000000000000005
@<TRIPOS>BOND
     1    22     2    1
     2     7    27    1
     3     7     1    1
     4    21     1    1
     5     8     2    1
     6     8    28    1
     7    12    19    2
     8     2     1    1
     9     2     6    1
    10     1     5    1
    11    13    19    1
    12    18     6    1
    13    18    20    1
    14    15    20    2
    15    19    17    1
    16    19    11    1
    17    14    20    1
    18     6    26    1
    19     6     4    1
    20     5    17    1
    21     5    25    1
    22     5     3    1
    23    20    16    1
    24    29     9    1
    25     9     3    1
    26     4     3    1
    27     4    24    1
    28     4    10    1
    29     3    23    1
    30    30    10    1
