@<TRIPOS>MOLECULE
PEMFGDIFKKXFRG-PYHSYOTJSA-M	6045044	-1862.168136532941
 106 106 0 0 0
SMALL
MULLIKEN NwChem

@<TRIPOS>ATOM
      1 C          -1.9861   -3.6250    2.9869 C.3     1  LIG1            -0.54
      2 C          -3.7044   -4.8248    1.5493 C.3     1  LIG1        -0.54
      3 C          -3.6035    1.6341    3.0769 C.3     1  LIG1        -0.54
      4 C          -5.4918   -0.6689   -2.0182 C.3     1  LIG1      -0.5300000000000002
      5 C          -0.2443   -4.0986   -0.4073 C.3     1  LIG1        -0.54
      6 C           0.2793    0.8423    2.8838 C.3     1  LIG1      -0.5499999999999998
      7 C          -1.7514    2.5379   -1.8153 C.3     1  LIG1      -0.5499999999999998
      8 C           1.7445   -1.1551   -3.3687 C.3     1  LIG1      -0.5499999999999998
      9 C          -4.3379   -2.0440    4.2556 C.3     1  LIG1      -0.3099999999999996
     10 C          -5.6095    0.8056    0.9328 C.3     1  LIG1      -0.3200000000000003
     11 C          -2.9042   -2.3663   -1.5437 C.3     1  LIG1      -0.33000000000000007
     12 C           1.0128   -1.7388    1.1686 C.3     1  LIG1      -0.3200000000000003
     13 C           0.2192    3.0339    0.6946 C.3     1  LIG1      -0.3200000000000003
     14 C           0.2255    1.5310   -3.9234 C.3     1  LIG1      -0.3200000000000003
     15 C          -4.4402   -3.0872    3.1616 C.2     1  LIG1      -0.20000000000000018
     16 C          -3.5777   -0.7363    3.9408 C.3     1  LIG1      -0.33999999999999986
     17 C          -5.0843   -0.0991    2.0219 C.2     1  LIG1      -0.17999999999999972
     18 C          -4.6063    0.9291   -0.2450 C.3     1  LIG1      -0.33000000000000007
     19 C          -3.3119   -1.1111   -0.8182 C.2     1  LIG1      -0.1900000000000004
     20 C          -1.3910   -2.3653   -1.8917 C.3     1  LIG1      -0.34999999999999964
     21 C           0.0688   -1.6340   -0.0066 C.2     1  LIG1      -0.16999999999999993
     22 C           1.8706   -0.4637    1.3485 C.3     1  LIG1      -0.33999999999999986
     23 C           0.9935    1.7398    0.6514 C.2     1  LIG1      -0.16999999999999993
     24 C           0.2180    3.7463   -0.6801 C.3     1  LIG1      -0.3600000000000003
     25 C           0.5678    2.4195   -2.7517 C.2     1  LIG1      -0.20000000000000018
     26 C           1.4806    1.0268   -4.6727 C.3     1  LIG1      -0.33999999999999986
     27 C           3.6266    0.5054   -3.5149 C.2     1  LIG1      -0.20000000000000018
     28 C           4.5998   -0.2396   -2.6449 C.3     1  LIG1      -0.3799999999999999
     29 C           5.0376    1.1518    1.4367 C.2     1  LIG1      -0.17999999999999972
     30 C           5.5268   -0.0805    1.0693 C.2     1  LIG1      -0.2599999999999998
     31 C           4.2873    1.5349   -0.8323 C.2     1  LIG1      -0.29000000000000004
     32 C          -3.4401   -3.7949    2.6188 C.2     1  LIG1      0.17999999999999972
     33 C          -4.1811    0.2421    2.9520 C.2     1  LIG1      0.16000000000000014
     34 C          -4.3966   -0.3495   -1.0287 C.2     1  LIG1      0.16999999999999993
     35 C          -0.4845   -2.6368   -0.7062 C.2     1  LIG1      0.16999999999999993
     36 C           1.0420    0.7791    1.5832 C.2     1  LIG1      0.16000000000000014
     37 C          -0.2760    2.8733   -1.8139 C.2     1  LIG1      0.17999999999999972
     38 C           2.3757    0.1376   -3.8350 C.2     1  LIG1      0.1900000000000004
     39 C           4.7512    0.3014   -1.2322 C.2     1  LIG1       0.040000000000000036
     40 C           4.4176    2.0129    0.4989 C.3     1  LIG1       0.04999999999999982
     41 C           5.4285   -0.5899   -0.2856 C.2     1  LIG1       0.3600000000000003
     42 C           3.8796    3.2880    0.9498 C.2     1  LIG1       0.5199999999999996
     43 O           5.8667   -1.7164   -0.6377 O.2     1  LIG1      -0.7100000000000009
     44 O           3.5269    4.1998   -0.0465 O.3     1  LIG1      -0.6400000000000006
     45 O           3.7030    3.6396    2.1055 O.2     1  LIG1      -0.5800000000000001
     46 H          -1.4892   -4.5990    3.0837 H       1  LIG1       0.15000000000000002
     47 H          -1.8428   -3.0813    3.9250 H       1  LIG1       0.16000000000000003
     48 H          -1.4560   -3.0764    2.1961 H       1  LIG1       0.18000000000000005
     49 H          -4.7670   -4.8920    1.2911 H       1  LIG1       0.15000000000000002
     50 H          -3.1475   -4.5885    0.6353 H       1  LIG1       0.18000000000000005
     51 H          -3.3637   -5.8203    1.8695 H       1  LIG1       0.16000000000000003
     52 H          -4.0269    2.3432    2.3628 H       1  LIG1       0.16000000000000003
     53 H          -3.7695    2.0345    4.0884 H       1  LIG1       0.16000000000000003
     54 H          -2.5163    1.6171    2.9240 H       1  LIG1       0.17000000000000004
     55 H          -5.5723    0.1223   -2.7773 H       1  LIG1       0.16000000000000003
     56 H          -5.3437   -1.6194   -2.5355 H       1  LIG1       0.16000000000000003
     57 H          -6.4678   -0.7186   -1.5150 H       1  LIG1       0.16000000000000003
     58 H           0.4056   -4.5472   -1.1724 H       1  LIG1       0.16000000000000003
     59 H           0.2268   -4.2608    0.5646 H       1  LIG1       0.16000000000000003
     60 H          -1.1835   -4.6663   -0.4213 H       1  LIG1       0.17000000000000004
     61 H           0.9414    0.6243    3.7336 H       1  LIG1       0.15000000000000002
     62 H          -0.1643    1.8258    3.0551 H       1  LIG1       0.17000000000000004
     63 H          -0.5273    0.0955    2.9174 H       1  LIG1       0.18000000000000005
     64 H          -2.3165    3.2343   -2.4533 H       1  LIG1       0.16000000000000003
     65 H          -1.9584    1.5234   -2.1743 H       1  LIG1       0.16000000000000003
     66 H          -2.1743    2.6208   -0.8096 H       1  LIG1       0.17000000000000004
     67 H           2.4857   -1.9422   -3.2134 H       1  LIG1       0.16000000000000003
     68 H           1.2192   -1.0253   -2.4153 H       1  LIG1       0.18000000000000005
     69 H           1.0091   -1.5196   -4.0978 H       1  LIG1       0.15000000000000002
     70 H          -5.3516   -1.7784    4.5802 H       1  LIG1          0.14
     71 H          -3.8475   -2.4927    5.1318 H       1  LIG1       0.15000000000000002
     72 H          -6.5701    0.4247    0.5624 H       1  LIG1          0.14
     73 H          -5.8114    1.8125    1.3191 H       1  LIG1       0.15000000000000002
     74 H          -3.1281   -3.2501   -0.9295 H       1  LIG1       0.16000000000000003
     75 H          -3.4789   -2.4853   -2.4695 H       1  LIG1       0.15000000000000002
     76 H           0.4464   -1.9241    2.0947 H       1  LIG1       0.16000000000000003
     77 H           1.6834   -2.5978    1.0474 H       1  LIG1       0.15000000000000002
     78 H          -0.8141    2.8630    1.0306 H       1  LIG1       0.16000000000000003
     79 H           0.6758    3.7158    1.4259 H       1  LIG1          0.14
     80 H          -0.3710    0.6674   -3.5924 H       1  LIG1       0.17000000000000004
     81 H          -0.4164    2.0720   -4.6373 H       1  LIG1       0.15000000000000002
     82 H          -5.4475   -3.2928    2.7986 H       1  LIG1          0.13
     83 H          -3.4314   -0.2076    4.8948 H       1  LIG1          0.14
     84 H          -2.5634   -0.9763    3.5935 H       1  LIG1       0.17000000000000004
     85 H          -5.4040   -1.1355    1.9670 H       1  LIG1          0.12
     86 H          -4.9575    1.7176   -0.9288 H       1  LIG1          0.13
     87 H          -3.6508    1.2689    0.1646 H       1  LIG1       0.16000000000000003
     88 H          -2.6068   -0.7866   -0.0528 H       1  LIG1          0.12
     89 H          -1.2094   -3.1291   -2.6615 H       1  LIG1          0.14
     90 H          -1.1449   -1.4004   -2.3492 H       1  LIG1       0.16000000000000003
     91 H          -0.1558   -0.6130   -0.3190 H       1  LIG1          0.13
     92 H           2.5572   -0.6221    2.1904 H       1  LIG1          0.13
     93 H           2.5048   -0.3270    0.4670 H       1  LIG1       0.16000000000000003
     94 H           1.5992    1.5919   -0.2391 H       1  LIG1          0.13
     95 H          -0.4034    4.6519   -0.6069 H       1  LIG1          0.14
     96 H           1.2422    4.0763   -0.8790 H       1  LIG1       0.15000000000000002
     97 H           1.6158    2.7077   -2.6750 H       1  LIG1          0.14
     98 H           1.1465    0.4736   -5.5649 H       1  LIG1          0.14
     99 H           2.0465    1.8965   -5.0347 H       1  LIG1          0.14
    100 H           3.9738    1.4713   -3.8897 H       1  LIG1          0.13
    101 H           4.3436   -1.3021   -2.5569 H       1  LIG1          0.14
    102 H           5.5917   -0.2431   -3.1259 H       1  LIG1          0.14
    103 H           5.1254    1.5046    2.4619 H       1  LIG1          0.13
    104 H           6.0096   -0.7313    1.7960 H       1  LIG1       0.09999999999999998
    105 H           3.7383    2.1280   -1.5660 H       1  LIG1          0.14
    106 H           3.8562    3.8582   -0.8928 H       1  LIG1       0.43999999999999995
@<TRIPOS>BOND
     1    98    26    1
     2    99    26    1
     3    26    14    1
     4    26    38    1
     5    81    14    1
     6    69     8    1
     7    14    80    1
     8    14    25    1
     9   100    27    1
    10    38    27    2
    11    38     8    1
    12    27    28    1
    13     8    67    1
    14     8    68    1
    15   102    28    1
    16    55     4    1
    17    25    97    1
    18    25    37    2
    19    89    20    1
    20    28   101    1
    21    28    39    1
    22    56     4    1
    23    75    11    1
    24    64     7    1
    25    90    20    1
    26    65     7    1
    27     4    57    1
    28     4    34    1
    29    20    11    1
    30    20    35    1
    31     7    37    1
    32     7    66    1
    33    37    24    1
    34   105    31    1
    35    11    74    1
    36    11    19    1
    37    39    31    2
    38    39    41    1
    39    58     5    1
    40    34    19    2
    41    34    18    1
    42    86    18    1
    43   106    44    1
    44    96    24    1
    45    31    40    1
    46    19    88    1
    47    35     5    1
    48    35    21    2
    49    24    95    1
    50    24    13    1
    51    43    41    2
    52    60     5    1
    53     5    59    1
    54    91    21    1
    55    41    30    1
    56    18    87    1
    57    18    10    1
    58    94    23    1
    59    44    42    1
    60    21    12    1
    61    93    22    1
    62    40    42    1
    63    40    29    1
    64    72    10    1
    65    50     2    1
    66    23    13    1
    67    23    36    2
    68    13    78    1
    69    13    79    1
    70    10    73    1
    71    10    17    1
    72    42    45    2
    73    77    12    1
    74    30    29    2
    75    30   104    1
    76    12    22    1
    77    12    76    1
    78    49     2    1
    79    22    36    1
    80    22    92    1
    81    29   103    1
    82     2    51    1
    83     2    32    1
    84    36     6    1
    85    85    17    1
    86    17    33    2
    87    48     1    1
    88    52     3    1
    89    32     1    1
    90    32    15    2
    91    82    15    1
    92     6    63    1
    93     6    62    1
    94     6    61    1
    95    54     3    1
    96    33     3    1
    97    33    16    1
    98     1    46    1
    99     1    47    1
   100     3    53    1
   101    15     9    1
   102    84    16    1
   103    16     9    1
   104    16    83    1
   105     9    70    1
   106     9    71    1
