@<TRIPOS>MOLECULE
PESKGJQREUXSRR-UXIWKSIVSA-N	6045045	-1131.2464557640224
 74 77 0 0 0
SMALL
MULLIKEN NwChem

@<TRIPOS>ATOM
      1 C           4.5933   -1.2599   -4.6128 C.3     1  LIG1      -0.45999999999999996
      2 C           3.2208   -0.1929   -6.4436 C.3     1  LIG1      -0.45999999999999996
      3 C          -0.5324   -0.2362   -2.1397 C.3     1  LIG1      -0.4900000000000002
      4 C          -1.4323    0.0300    4.3036 C.3     1  LIG1         -0.5
      5 C           2.2882    3.0675    0.1863 C.3     1  LIG1      -0.4800000000000004
      6 C           1.9313   -1.9041   -3.1396 C.3     1  LIG1      -0.2699999999999996
      7 C           2.0488   -1.4728   -4.6119 C.3     1  LIG1      -0.2599999999999998
      8 C           1.9590   -0.7609   -2.1063 C.3     1  LIG1      -0.29000000000000004
      9 C          -3.3323    0.8249    2.0302 C.3     1  LIG1      -0.28000000000000025
     10 C          -2.2982    1.9052    1.6416 C.3     1  LIG1      -0.29000000000000004
     11 C           0.2418    2.8069   -2.0105 C.3     1  LIG1      -0.3099999999999996
     12 C          -0.7382    3.0324   -0.8338 C.3     1  LIG1      -0.2999999999999998
     13 C          -1.7792   -2.9899    3.6450 C.3     1  LIG1       -0.3600000000000003
     14 C           0.8481   -0.3158    1.3355 C.3     1  LIG1      -0.29000000000000004
     15 C          -0.8012   -2.0093    2.9639 C.3     1  LIG1      -0.2999999999999998
     16 C           1.8591    0.7244    0.8390 C.3     1  LIG1      -0.2999999999999998
     17 C          -3.7145   -1.5471    2.8228 C.3     1  LIG1       -0.3700000000000001
     18 C           3.2591   -0.5838   -4.9593 C.3     1  LIG1      -0.07000000000000028
     19 C           0.8864    0.3316   -2.3038 C.3     1  LIG1      -0.07000000000000028
     20 C          -2.7059   -0.5763    2.1683 C.3     1  LIG1      -0.11000000000000032
     21 C          -3.1472   -2.9458    2.9869 C.2     1  LIG1       0.45999999999999996
     22 C          -1.0436    1.2791    1.0174 C.3     1  LIG1      -0.11000000000000032
     23 C           1.2202    1.6781   -1.5836 C.3     1  LIG1      -0.09999999999999964
     24 C          -0.1147    2.3628    0.4283 C.3     1  LIG1      -0.08999999999999986
     25 C          -0.3218    0.3817    2.0516 C.3     1  LIG1      -0.11000000000000032
     26 C          -1.3183   -0.5497    2.8750 C.3     1  LIG1      0.11000000000000032
     27 C           1.3047    1.8828   -0.0219 C.3     1  LIG1      0.11000000000000032
     28 O          -3.7307   -3.9436    2.6068 O.2     1  LIG1      -0.5199999999999996
     29 H           4.6941   -2.2133   -5.1483 H       1  LIG1          0.14
     30 H           4.6826   -1.4685   -3.5411 H       1  LIG1       0.15000000000000002
     31 H           5.4409   -0.6261   -4.8992 H       1  LIG1          0.14
     32 H           3.2982   -1.0827   -7.0823 H       1  LIG1          0.14
     33 H           2.2845    0.3186   -6.6975 H       1  LIG1          0.14
     34 H           4.0510    0.4754   -6.7017 H       1  LIG1          0.14
     35 H          -0.6677   -0.7483   -1.1831 H       1  LIG1       0.16000000000000003
     36 H          -1.2970    0.5433   -2.2149 H       1  LIG1       0.15000000000000002
     37 H          -0.7406   -0.9685   -2.9275 H       1  LIG1       0.15000000000000002
     38 H          -2.1418   -0.5176    4.9319 H       1  LIG1       0.15000000000000002
     39 H          -0.4559   -0.0084    4.8018 H       1  LIG1       0.15000000000000002
     40 H          -1.7509    1.0765    4.2899 H       1  LIG1       0.16000000000000003
     41 H           3.3056    2.7798   -0.1068 H       1  LIG1          0.14
     42 H           2.0103    3.9517   -0.3962 H       1  LIG1       0.15000000000000002
     43 H           2.3158    3.3651    1.2411 H       1  LIG1          0.14
     44 H           1.0078   -2.4860   -3.0215 H       1  LIG1          0.13
     45 H           2.7468   -2.5980   -2.8978 H       1  LIG1          0.13
     46 H           1.1321   -0.9469   -4.9129 H       1  LIG1          0.13
     47 H           2.0908   -2.3772   -5.2369 H       1  LIG1          0.12
     48 H           1.8575   -1.2099   -1.1130 H       1  LIG1          0.14
     49 H           2.9508   -0.2891   -2.1254 H       1  LIG1          0.13
     50 H          -3.8283    1.0983    2.9704 H       1  LIG1          0.14
     51 H          -4.1268    0.7692    1.2756 H       1  LIG1          0.14
     52 H          -1.9891    2.4803    2.5254 H       1  LIG1          0.13
     53 H          -2.7517    2.6303    0.9568 H       1  LIG1          0.14
     54 H           0.8010    3.7253   -2.2165 H       1  LIG1          0.14
     55 H          -0.2849    2.5602   -2.9391 H       1  LIG1          0.13
     56 H          -1.7102    2.5772   -1.0563 H       1  LIG1       0.15000000000000002
     57 H          -0.9322    4.0985   -0.6765 H       1  LIG1          0.13
     58 H          -1.4022   -4.0160    3.6030 H       1  LIG1       0.15000000000000002
     59 H          -1.9016   -2.7258    4.7044 H       1  LIG1       0.18000000000000005
     60 H           0.4704   -0.9271    0.5091 H       1  LIG1       0.15000000000000002
     61 H           1.3773   -0.9987    2.0081 H       1  LIG1          0.13
     62 H          -0.6045   -2.3855    1.9530 H       1  LIG1       0.15000000000000002
     63 H           0.1548   -2.0389    3.4996 H       1  LIG1       0.15000000000000002
     64 H           2.6888    0.2399    0.3133 H       1  LIG1          0.14
     65 H           2.3060    1.1692    1.7397 H       1  LIG1          0.13
     66 H          -3.9895   -1.1721    3.8196 H       1  LIG1       0.18000000000000005
     67 H          -4.6344   -1.6082    2.2325 H       1  LIG1       0.15000000000000002
     68 H           3.1859    0.3427   -4.3706 H       1  LIG1          0.13
     69 H           0.9548    0.6333   -3.3596 H       1  LIG1          0.13
     70 H          -2.5230   -0.9634    1.1550 H       1  LIG1          0.14
     71 H          -1.3699    0.6402    0.1897 H       1  LIG1          0.13
     72 H           2.2195    1.9155   -1.9745 H       1  LIG1          0.12
     73 H           0.0190    3.1099    1.2236 H       1  LIG1       0.10999999999999999
     74 H           0.1349    1.0628    2.7869 H       1  LIG1           0.12
@<TRIPOS>BOND
     1    32     2    1
     2    34     2    1
     3    33     2    1
     4     2    18    1
     5    47     7    1
     6    29     1    1
     7    18     1    1
     8    18     7    1
     9    18    68    1
    10    46     7    1
    11    31     1    1
    12     1    30    1
    13     7     6    1
    14    69    19    1
    15     6    44    1
    16     6    45    1
    17     6     8    1
    18    55    11    1
    19    37     3    1
    20    19     3    1
    21    19     8    1
    22    19    23    1
    23    54    11    1
    24    36     3    1
    25     3    35    1
    26    49     8    1
    27     8    48    1
    28    11    23    1
    29    11    12    1
    30    72    23    1
    31    23    27    1
    32    56    12    1
    33    12    57    1
    34    12    24    1
    35    42     5    1
    36    41     5    1
    37    27     5    1
    38    27    24    1
    39    27    16    1
    40     5    43    1
    41    71    22    1
    42    64    16    1
    43    24    22    1
    44    24    73    1
    45    60    14    1
    46    16    14    1
    47    16    65    1
    48    53    10    1
    49    22    10    1
    50    22    25    1
    51    70    20    1
    52    51     9    1
    53    14    61    1
    54    14    25    1
    55    10     9    1
    56    10    52    1
    57    62    15    1
    58     9    20    1
    59     9    50    1
    60    25    74    1
    61    25    26    1
    62    20    17    1
    63    20    26    1
    64    67    17    1
    65    28    21    2
    66    17    21    1
    67    17    66    1
    68    26    15    1
    69    26     4    1
    70    15    63    1
    71    15    13    1
    72    21    13    1
    73    58    13    1
    74    13    59    1
    75    40     4    1
    76     4    39    1
    77     4    38    1
