@<TRIPOS>MOLECULE
PFDUUKDQEHURQC-ZETCQYMHSA-N	6045047	-744.3642657613967
 28 28 0 0 0
SMALL
MULLIKEN NwChem

@<TRIPOS>ATOM
      1 C           2.0733   -3.1392    1.4844 C.3     1  LIG1       -0.23000000000000043
      2 C           1.3408    1.3079   -0.6674 C.ar    1  LIG1      -0.20999999999999996
      3 C           2.2660    0.3605   -1.1076 C.ar    1  LIG1      -0.21999999999999975
      4 C          -0.7167    1.9627    0.6555 C.3     1  LIG1      -0.3600000000000003
      5 C           0.2659   -0.3727    0.6688 C.ar    1  LIG1      -0.2599999999999998
      6 C           0.3234    0.9550    0.2230 C.ar    1  LIG1      0.13999999999999968
      7 CA         -1.9578    2.0096   -0.2706 C.3     1  LIG1       -0.040000000000000036
      8 C           2.1897   -0.9636   -0.6726 C.ar    1  LIG1       0.3099999999999996
      9 C           1.1771   -1.3322    0.2345 C.ar    1  LIG1       0.3099999999999996
     10 C          -2.6019    0.6237   -0.2869 C.2     1  LIG1       0.5999999999999996
     11 N          -2.8761    3.0417    0.2126 N.3     1  LIG1      -0.7599999999999998
     12 O           3.0577   -1.9384   -1.0912 O.3     1  LIG1      -0.6699999999999999
     13 OXT        -3.2389    0.1672    0.6405 O.2     1  LIG1      -0.5199999999999996
     14 O          -2.3766   -0.0523   -1.4337 O.3     1  LIG1      -0.5800000000000001
     15 O           1.0224   -2.6300    0.6577 O.3     1  LIG1      -0.5500000000000007
     16 H           1.7701   -4.1497    1.7687 H       1  LIG1       0.17000000000000004
     17 H           2.1878   -2.5266    2.3894 H       1  LIG1       0.16000000000000003
     18 H           3.0258   -3.1797    0.9465 H       1  LIG1       0.17000000000000004
     19 H           1.4148    2.3319   -1.0252 H       1  LIG1       0.15000000000000002
     20 H           3.0528    0.6479   -1.8035 H       1  LIG1       0.17000000000000004
     21 H          -1.0689    1.7352    1.6697 H       1  LIG1       0.17000000000000004
     22 H          -0.3013    2.9755    0.6749 H       1  LIG1       0.17000000000000004
     23 H          -0.5109   -0.6925    1.3578 H       1  LIG1       0.15000000000000002
     24 HA         -1.6365    2.2638   -1.2851 H       1  LIG1       0.17000000000000004
     25 H1         -3.6490    3.1485   -0.4438 H       1  LIG1       0.33999999999999997
     26 H2         -3.2954    2.7087    1.0819 H       1  LIG1       0.32999999999999996
     27 H           3.6881   -1.5456   -1.7143 H       1  LIG1       0.44999999999999996
     28 H          -2.7706   -0.9388   -1.3194 H       1  LIG1       0.43999999999999995
@<TRIPOS>BOND
     1    20     3    1
     2    27    12    1
     3    14    28    1
     4    14    10    1
     5    24     7    1
     6     3     8   ar
     7     3     2   ar
     8    12     8    1
     9    19     2    1
    10     8     9   ar
    11     2     6   ar
    12    25    11    1
    13    10     7    1
    14    10    13    2
    15     7    11    1
    16     7     4    1
    17    11    26    1
    18     6     4    1
    19     6     5   ar
    20     9    15    1
    21     9     5   ar
    22     4    22    1
    23     4    21    1
    24    15     1    1
    25     5    23    1
    26    18     1    1
    27     1    16    1
    28     1    17    1
