@<TRIPOS>MOLECULE
PFIUSPPKANBDHQ-RJYQSXAYSA-N	6045048	-2017.550409930617
 116 116 0 0 0
SMALL
MULLIKEN NwChem

@<TRIPOS>ATOM
      1 C          -2.7358    5.5783    1.8307 C.3     1  LIG1            -0.54
      2 C          -4.6444    4.6247    3.2047 C.3     1  LIG1      -0.5199999999999996
      3 C          -5.8710    2.8975   -2.6509 C.3     1  LIG1      -0.5300000000000002
      4 C          -5.3520   -0.8746    2.2881 C.3     1  LIG1      -0.5300000000000002
      5 C          -0.6660    2.1705    2.5110 C.3     1  LIG1      -0.5499999999999998
      6 C          -1.8117    1.4002   -2.8693 C.3     1  LIG1      -0.5499999999999998
      7 C          -2.6196   -3.3057   -1.4632 C.3     1  LIG1      -0.5499999999999998
      8 C           1.0951   -3.2427    3.4548 C.3     1  LIG1      -0.5300000000000002
      9 C           3.4657    1.5848    0.6751 C.3     1  LIG1      -0.6200000000000001
     10 C           8.0045   -0.8413   -2.0828 C.3     1  LIG1       -0.23000000000000043
     11 C           6.7903   -3.8523   -0.6288 C.3     1  LIG1       -0.23000000000000043
     12 C          -4.5143    5.1772   -0.6783 C.3     1  LIG1      -0.3200000000000003
     13 C          -5.7944    0.5764   -0.5517 C.3     1  LIG1      -0.3200000000000003
     14 C          -2.3154   -0.6255    2.6216 C.3     1  LIG1      -0.3200000000000003
     15 C           0.0935    2.0682   -0.4795 C.3     1  LIG1      -0.33000000000000007
     16 C          -1.0501   -1.4898   -3.6510 C.3     1  LIG1      -0.3099999999999996
     17 C          -0.5168   -4.1827    0.4776 C.3     1  LIG1      -0.2999999999999998
     18 C          -4.9065    4.8872    0.7475 C.2     1  LIG1      -0.1900000000000004
     19 C          -3.9176    3.9277   -1.3791 C.3     1  LIG1      -0.33999999999999986
     20 C          -4.8982    1.7846   -0.6022 C.2     1  LIG1      -0.16999999999999993
     21 C          -5.0049   -0.7231   -0.2464 C.3     1  LIG1      -0.33999999999999986
     22 C          -3.0580   -0.6580    1.3025 C.2     1  LIG1      -0.1900000000000004
     23 C          -0.7965   -0.3878    2.4434 C.3     1  LIG1      -0.3600000000000003
     24 C          -0.1362    0.8789    0.4220 C.2     1  LIG1      -0.16999999999999993
     25 C           0.5471    1.6388   -1.8919 C.3     1  LIG1      -0.34999999999999964
     26 C          -0.1624   -0.4967   -2.9426 C.2     1  LIG1      -0.1900000000000004
     27 C          -0.7780   -2.9538   -3.2344 C.3     1  LIG1      -0.34999999999999964
     28 C          -0.2215   -3.6657   -0.9119 C.2     1  LIG1      -0.20000000000000018
     29 C           0.7517   -4.5429    1.2867 C.3     1  LIG1      -0.34999999999999964
     30 C           2.1203   -2.4579    1.2872 C.2     1  LIG1        -0.25
     31 C           2.8005   -1.2099    1.8149 C.3     1  LIG1      -0.41000000000000014
     32 C          -4.1439    5.0326    1.8406 C.2     1  LIG1      0.17999999999999972
     33 C          -4.9021    2.7819   -1.4996 C.2     1  LIG1      0.17999999999999972
     34 C          -4.3846   -0.7537    1.1349 C.2     1  LIG1      0.16999999999999993
     35 C          -0.4858    0.9010    1.7175 C.2     1  LIG1      0.16999999999999993
     36 C          -0.4640    0.7659   -2.6055 C.2     1  LIG1      0.16999999999999993
     37 C          -1.1483   -3.2988   -1.8092 C.2     1  LIG1      0.17999999999999972
     38 C           1.3950   -3.3534    1.9800 C.2     1  LIG1      0.17999999999999972
     39 C           4.3929    0.3897    0.5665 C.ar    1  LIG1       0.07000000000000028
     40 C           4.0958   -0.8923    1.0810 C.ar    1  LIG1       0.07000000000000028
     41 C           5.6198    0.6012   -0.0851 C.ar    1  LIG1       0.20000000000000018
     42 C           5.0433   -1.9250    0.9382 C.ar    1  LIG1       0.21999999999999975
     43 C           6.5454   -0.4400   -0.2539 C.ar    1  LIG1       0.2699999999999996
     44 C           6.2495   -1.7129    0.2497 C.ar    1  LIG1       0.2699999999999996
     45 O           5.9742    1.8161   -0.6191 O.3     1  LIG1      -0.6799999999999997
     46 O           4.8753   -3.1724    1.4912 O.3     1  LIG1      -0.6899999999999995
     47 O           7.7342   -0.1473   -0.8672 O.3     1  LIG1      -0.5500000000000007
     48 O           7.1956   -2.7011    0.1183 O.3     1  LIG1      -0.5500000000000007
     49 H          -2.6456    6.4384    2.5080 H       1  LIG1       0.16000000000000003
     50 H          -2.4009    5.8953    0.8394 H       1  LIG1       0.16000000000000003
     51 H          -2.0295    4.8207    2.1951 H       1  LIG1       0.17000000000000004
     52 H          -5.6603    4.2205    3.1673 H       1  LIG1       0.16000000000000003
     53 H          -3.9909    3.8584    3.6461 H       1  LIG1       0.16000000000000003
     54 H          -4.6434    5.4748    3.9012 H       1  LIG1       0.16000000000000003
     55 H          -6.6114    2.0946   -2.6705 H       1  LIG1       0.16000000000000003
     56 H          -6.4170    3.8492   -2.6067 H       1  LIG1       0.16000000000000003
     57 H          -5.3338    2.8919   -3.6099 H       1  LIG1       0.16000000000000003
     58 H          -5.9678   -1.7795    2.1856 H       1  LIG1       0.16000000000000003
     59 H          -4.8484   -0.9230    3.2569 H       1  LIG1       0.16000000000000003
     60 H          -6.0490   -0.0258    2.3169 H       1  LIG1       0.17000000000000004
     61 H          -0.3807    3.0642    1.9480 H       1  LIG1       0.17000000000000004
     62 H          -1.7136    2.3021    2.8245 H       1  LIG1       0.17000000000000004
     63 H          -0.0658    2.1399    3.4320 H       1  LIG1       0.16000000000000003
     64 H          -1.7060    2.4651   -3.1008 H       1  LIG1       0.16000000000000003
     65 H          -2.3420    0.9305   -3.7022 H       1  LIG1       0.16000000000000003
     66 H          -2.4658    1.3375   -1.9912 H       1  LIG1       0.18000000000000005
     67 H          -3.0099   -4.3343   -1.4441 H       1  LIG1       0.16000000000000003
     68 H          -2.8113   -2.8715   -0.4768 H       1  LIG1       0.17000000000000004
     69 H          -3.2156   -2.7479   -2.1929 H       1  LIG1       0.17000000000000004
     70 H           1.4329   -4.1407    3.9904 H       1  LIG1       0.17000000000000004
     71 H           1.5437   -2.3673    3.9302 H       1  LIG1       0.17000000000000004
     72 H           0.0088   -3.1782    3.6069 H       1  LIG1       0.18000000000000005
     73 H           3.9208    2.3974    1.2638 H       1  LIG1       0.18000000000000005
     74 H           3.2268    1.9914   -0.3185 H       1  LIG1       0.18999999999999995
     75 H           2.5134    1.3530    1.1522 H       1  LIG1       0.18999999999999995
     76 H           8.3245   -1.8714   -1.8923 H       1  LIG1       0.17000000000000004
     77 H           7.1232   -0.8455   -2.7380 H       1  LIG1       0.16000000000000003
     78 H           8.8128   -0.2919   -2.5747 H       1  LIG1       0.17000000000000004
     79 H           5.9638   -4.3764   -0.1424 H       1  LIG1       0.17000000000000004
     80 H           6.4968   -3.5708   -1.6503 H       1  LIG1       0.16000000000000003
     81 H           7.6660   -4.5046   -0.6757 H       1  LIG1       0.17000000000000004
     82 H          -5.3929    5.5220   -1.2391 H       1  LIG1       0.15000000000000002
     83 H          -3.7807    5.9895   -0.7316 H       1  LIG1       0.15000000000000002
     84 H          -6.5721    0.7145    0.2159 H       1  LIG1       0.15000000000000002
     85 H          -6.3274    0.4402   -1.4999 H       1  LIG1       0.15000000000000002
     86 H          -2.7329    0.1559    3.2719 H       1  LIG1       0.16000000000000003
     87 H          -2.4560   -1.5707    3.1667 H       1  LIG1       0.16000000000000003
     88 H          -0.8258    2.6679   -0.5573 H       1  LIG1       0.17000000000000004
     89 H           0.8510    2.7400   -0.0529 H       1  LIG1       0.16000000000000003
     90 H          -2.1085   -1.2524   -3.4906 H       1  LIG1       0.16000000000000003
     91 H          -0.8895   -1.4213   -4.7381 H       1  LIG1       0.15000000000000002
     92 H          -1.1235   -3.4614    1.0457 H       1  LIG1       0.17000000000000004
     93 H          -1.1438   -5.0834    0.3906 H       1  LIG1       0.15000000000000002
     94 H          -5.8965    4.4505    0.8744 H       1  LIG1          0.12
     95 H          -3.5659    4.2185   -2.3799 H       1  LIG1          0.14
     96 H          -3.0368    3.6068   -0.8098 H       1  LIG1       0.16000000000000003
     97 H          -4.1582    1.8323    0.1958 H       1  LIG1       0.10999999999999999
     98 H          -5.6891   -1.5772   -0.3569 H       1  LIG1          0.14
     99 H          -4.2267   -0.8364   -1.0094 H       1  LIG1       0.15000000000000002
    100 H          -2.4374   -0.5707    0.4131 H       1  LIG1          0.13
    101 H          -0.3227   -0.3901    3.4357 H       1  LIG1          0.14
    102 H          -0.3735   -1.2312    1.8874 H       1  LIG1       0.16000000000000003
    103 H          -0.0346   -0.0934   -0.0590 H       1  LIG1          0.12
    104 H           0.7350    2.5460   -2.4868 H       1  LIG1          0.14
    105 H           1.5017    1.1054   -1.8092 H       1  LIG1       0.15000000000000002
    106 H           0.8401   -0.8583   -2.7111 H       1  LIG1          0.12
    107 H          -1.3478   -3.6087   -3.9110 H       1  LIG1          0.14
    108 H           0.2817   -3.1816   -3.4088 H       1  LIG1          0.14
    109 H           0.8211   -3.6899   -1.2277 H       1  LIG1          0.13
    110 H           0.4918   -5.2926    2.0430 H       1  LIG1       0.15000000000000002
    111 H           1.4722   -5.0265    0.6143 H       1  LIG1       0.16000000000000003
    112 H           2.2326   -2.6105    0.2137 H       1  LIG1       0.15000000000000002
    113 H           2.0966   -0.3776    1.7222 H       1  LIG1       0.18999999999999995
    114 H           3.0044   -1.3181    2.8886 H       1  LIG1       0.18000000000000005
    115 H           5.3408    2.4839   -0.3193 H       1  LIG1       0.44999999999999996
    116 H           3.9264   -3.3135    1.6725 H       1  LIG1       0.43000000000000005
@<TRIPOS>BOND
     1    91    16    1
     2   107    27    1
     3    65     6    1
     4    16    90    1
     5    16    27    1
     6    16    26    1
     7    57     3    1
     8   108    27    1
     9    27    37    1
    10    64     6    1
    11    26   106    1
    12    26    36    2
    13     6    36    1
    14     6    66    1
    15    77    10    1
    16    55     3    1
    17     3    56    1
    18     3    33    1
    19    36    25    1
    20    78    10    1
    21   104    25    1
    22    95    19    1
    23    69     7    1
    24    10    76    1
    25    10    47    1
    26    25   105    1
    27    25    15    1
    28    37     7    1
    29    37    28    2
    30    80    11    1
    31    85    13    1
    32    33    19    1
    33    33    20    2
    34     7    67    1
    35     7    68    1
    36    19    96    1
    37    19    12    1
    38    82    12    1
    39   109    28    1
    40    99    21    1
    41    28    17    1
    42    47    43    1
    43    83    12    1
    44    12    18    1
    45    81    11    1
    46    11    79    1
    47    11    48    1
    48    45   115    1
    49    45    41    1
    50    20    13    1
    51    20    97    1
    52    88    15    1
    53    13    21    1
    54    13    84    1
    55    15    89    1
    56    15    24    1
    57    98    21    1
    58    74     9    1
    59    43    41   ar
    60    43    44   ar
    61    21    34    1
    62    41    39   ar
    63   103    24    1
    64    48    44    1
    65   112    30    1
    66    44    42   ar
    67    93    17    1
    68   100    22    1
    69    24    35    2
    70    17    92    1
    71    17    29    1
    72    39     9    1
    73    39    40   ar
    74   111    29    1
    75     9    75    1
    76     9    73    1
    77    18    94    1
    78    18    32    2
    79    50     1    1
    80    42    40   ar
    81    42    46    1
    82    40    31    1
    83    34    22    2
    84    34     4    1
    85    29    38    1
    86    29   110    1
    87    30    31    1
    88    30    38    2
    89    22    14    1
    90    46   116    1
    91    35    23    1
    92    35     5    1
    93   113    31    1
    94    31   114    1
    95     1    32    1
    96     1    51    1
    97     1    49    1
    98    32     2    1
    99   102    23    1
   100    61     5    1
   101    38     8    1
   102    58     4    1
   103     4    60    1
   104     4    59    1
   105    23    14    1
   106    23   101    1
   107     5    62    1
   108     5    63    1
   109    14    87    1
   110    14    86    1
   111    52     2    1
   112     2    53    1
   113     2    54    1
   114     8    72    1
   115     8    71    1
   116     8    70    1
