@<TRIPOS>MOLECULE
PGAVKCOVUIYSFO-XVFCMESISA-J	11085250	-2612.1086357705763
 40 40 0 0 0
SMALL
MULLIKEN NwChem

@<TRIPOS>ATOM
      1 C          -6.7243    0.7048   -1.2781 C.ar    1  LIG1       -0.29000000000000004
      2 C          -6.4490   -0.5917   -1.5323 C.ar    1  LIG1       0.08000000000000007
      3 C          -8.9454   -5.2550   -3.4328 C.3     1  LIG1       -0.08000000000000007
      4 C          -7.8140   -4.8311   -2.4789 C.3     1  LIG1       0.11000000000000032
      5 C          -7.9100    1.0470   -0.4650 C.ar    1  LIG1       0.5099999999999998
      6 C          -7.9882   -5.1036   -0.9688 C.3     1  LIG1       0.11000000000000032
      7 C          -7.0163   -4.0710   -0.3416 C.3     1  LIG1       0.07000000000000028
      8 C          -6.9083   -2.9724   -1.4306 C.3     1  LIG1       0.28000000000000025
      9 C          -8.4626   -1.2749   -0.3308 C.ar    1  LIG1       0.6699999999999999
     10 N          -8.7126    0.0212   -0.0452 N.ar    1  LIG1      -0.6699999999999999
     11 N          -7.2406   -1.6084   -1.0609 N.ar    1  LIG1         -0.5
     12 O          -8.1418    2.2461   -0.1878 O.2     1  LIG1      -0.6799999999999997
     13 O          -7.6154   -6.3903   -0.5271 O.3     1  LIG1      -0.7400000000000002
     14 O          -5.7401   -4.6888   -0.1653 O.3     1  LIG1      -0.7100000000000009
     15 O          -9.1839   -2.2269    0.0063 O.2     1  LIG1      -0.6300000000000008
     16 O          58.8895   41.2370   19.8231 O.3     2  LIG2      -0.6500000000000004
     17 O          59.1109   42.3234   17.4627 O.3     2  LIG2      -0.6500000000000004
     18 O          56.7625   42.0788   18.5679 O.2     2  LIG2      -0.6500000000000004
     19 O         -10.5405   -7.8386   -3.1090 O.2     1  LIG1      -0.6699999999999999
     20 O          -8.0480   -8.1840   -2.3703 O.3     1  LIG1        -0.75
     21 O          -6.4985   -9.7595   -3.9700 O.3     1  LIG1      -0.7599999999999998
     22 O          -8.5385  -11.3610   -4.1807 O.3     1  LIG1      -0.6899999999999995
     23 O          -8.6422   -6.4311   -4.1626 O.3     1  LIG1      -0.5800000000000001
     24 O          -7.6994   -3.3978   -2.5405 O.3     1  LIG1      -0.5500000000000007
     25 O          -7.3733  -10.3521   -6.3085 O.2     1  LIG1      -0.6799999999999997
     26 O          -8.7584   -8.8263   -4.7551 O.3     1  LIG1      -0.6600000000000001
     27 P          58.2540   41.8794   18.6183 P.3     2  LIG2       0.9399999999999995
     28 P          -9.0864   -7.9015   -3.4778 P.3     1  LIG1       1.1300000000000008
     29 P          -7.7912  -10.2516   -4.8679 P.3     1  LIG1       1.0500000000000007
     30 H          -6.0849    1.5033   -1.6416 H       1  LIG1          0.13
     31 H          -5.5872   -0.9077   -2.1126 H       1  LIG1       0.18999999999999995
     32 H          -9.0646   -4.4456   -4.1644 H       1  LIG1       0.17000000000000004
     33 H          -9.8933   -5.3654   -2.8896 H       1  LIG1       0.16000000000000003
     34 H          -6.8830   -5.3078   -2.8225 H       1  LIG1       0.15000000000000002
     35 H          -9.0151   -4.8434   -0.6829 H       1  LIG1          0.14
     36 H          -7.3856   -3.6653    0.6027 H       1  LIG1       0.15000000000000002
     37 H          -5.8491   -2.9569   -1.7298 H       1  LIG1       0.16000000000000003
     38 H          -7.8188   -7.0854   -1.2390 H       1  LIG1          0.47
     39 H          -5.9812   -5.6434   -0.2124 H       1  LIG1       0.42000000000000004
     40 H          -6.8660   -9.2449   -3.2076 H       1  LIG1       0.44999999999999996
@<TRIPOS>BOND
     1    25    29    2
     2    29    26    1
     3    29    22    1
     4    29    21    1
     5    26    28    1
     6    32     3    1
     7    23    28    1
     8    23     3    1
     9    21    40    1
    10    28    19    2
    11    28    20    1
    12     3    33    1
    13     3     4    1
    14    34     4    1
    15    24     4    1
    16    24     8    1
    17     4     6    1
    18    31     2    1
    19    37     8    1
    20    30     1    1
    21     2     1   ar
    22     2    11   ar
    23     8    11    1
    24     8     7    1
    25     1     5   ar
    26    38    13    1
    27    11     9   ar
    28     6    35    1
    29     6    13    1
    30     6     7    1
    31     5    12    2
    32     5    10   ar
    33     7    14    1
    34     7    36    1
    35     9    10   ar
    36     9    15    2
    37    39    14    1
    38    17    27    1
    39    18    27    2
    40    27    16    1
