@<TRIPOS>MOLECULE
PGOYMURMZNDHNS-AFDXFISUSA-M	6045051	-1471.9186920163622
 81 85 0 0 0
SMALL
MULLIKEN NwChem

@<TRIPOS>ATOM
      1 C          -3.6802    4.6233    2.9851 C.3     1  LIG1      -0.45999999999999996
      2 C          -2.7743    3.0653    4.7188 C.3     1  LIG1      -0.46999999999999975
      3 C           3.0585   -1.8987   -0.3681 C.3     1  LIG1      -0.5199999999999996
      4 C           3.0056   -1.1892   -4.9924 C.3     1  LIG1      -0.5300000000000002
      5 C          -1.2517    1.6108   -0.9713 C.3     1  LIG1      -0.4900000000000002
      6 C          -0.0944   -1.9296    0.4036 C.3     1  LIG1      -0.4900000000000002
      7 C           0.4466    0.9865    1.6711 C.2     1  LIG1      -0.23000000000000043
      8 C           1.6374    0.6158    0.8364 C.3     1  LIG1      -0.3200000000000003
      9 C           0.7984   -1.9691   -2.6207 C.3     1  LIG1      -0.28000000000000025
     10 C           4.6807    0.0727   -2.4904 C.3     1  LIG1      -0.2999999999999998
     11 C           3.6584    0.3561   -1.3568 C.3     1  LIG1      -0.2999999999999998
     12 C          -0.3648   -1.2006   -1.9869 C.3     1  LIG1      -0.29000000000000004
     13 C          -4.5702    2.2713    3.1110 C.3     1  LIG1      -0.2699999999999996
     14 C          -2.6101   -0.3144   -0.1621 C.3     1  LIG1      -0.3099999999999996
     15 C          -4.2546    0.7721    3.2033 C.3     1  LIG1      -0.29000000000000004
     16 C          -3.6643    0.2981    0.7672 C.3     1  LIG1      -0.28000000000000025
     17 C          -2.2452    2.6926    2.2656 C.3     1  LIG1      -0.28000000000000025
     18 C           3.2181   -3.2954   -3.6469 C.3     1  LIG1       -0.08000000000000007
     19 C          -0.8359    0.8174    1.3338 C.2     1  LIG1      0.17999999999999972
     20 C          -1.9143    1.1829    2.3431 C.3     1  LIG1      -0.16000000000000014
     21 C           2.0863   -1.1318   -2.6499 C.3     1  LIG1      -0.1299999999999999
     22 C           1.2941    0.0353   -0.5524 C.3     1  LIG1      -0.1299999999999999
     23 C           4.6257   -1.3503   -3.0470 C.3     1  LIG1       0.09999999999999964
     24 C          -2.8386   -1.2128    2.6474 C.2     1  LIG1       0.5599999999999996
     25 C          -3.3135    3.1588    3.2781 C.3     1  LIG1      0.11000000000000032
     26 C           2.5237   -0.7051   -1.2142 C.3     1  LIG1      0.1299999999999999
     27 C           3.2124   -1.7435   -3.5675 C.3     1  LIG1       0.11000000000000032
     28 C          -1.1953    0.3359   -0.0784 C.3     1  LIG1      0.05999999999999961
     29 C          -0.0793   -0.7076   -0.5495 C.3     1  LIG1      0.08000000000000007
     30 C          -3.1652    0.2902    2.2222 C.3     1  LIG1       0.009999999999999787
     31 O           2.1824   -3.8783   -4.4431 O.3     1  LIG1      -0.6699999999999999
     32 O           5.6478   -1.5486   -4.0364 O.3     1  LIG1      -0.6899999999999995
     33 O          -1.7597   -1.3992    3.2614 O.co2   1  LIG1      -0.6699999999999999
     34 O          -3.7297   -2.0389    2.3336 O.co2   1  LIG1      -0.6999999999999993
     35 H          -4.0619    4.7322    1.9608 H       1  LIG1          0.14
     36 H          -2.8074    5.2831    3.0874 H       1  LIG1          0.14
     37 H          -4.4581    4.9804    3.6723 H       1  LIG1          0.14
     38 H          -2.4842    2.0456    4.9881 H       1  LIG1       0.15000000000000002
     39 H          -1.8911    3.7063    4.8438 H       1  LIG1          0.14
     40 H          -3.5389    3.3967    5.4361 H       1  LIG1          0.14
     41 H           2.6911   -2.8645   -0.7239 H       1  LIG1       0.16000000000000003
     42 H           4.1511   -1.9428   -0.3795 H       1  LIG1       0.15000000000000002
     43 H           2.7679   -1.8158    0.6776 H       1  LIG1       0.16000000000000003
     44 H           3.1331   -0.0984   -5.0174 H       1  LIG1       0.16000000000000003
     45 H           3.7110   -1.6268   -5.7117 H       1  LIG1       0.15000000000000002
     46 H           1.9908   -1.4031   -5.3385 H       1  LIG1       0.16000000000000003
     47 H          -2.1205    2.2143   -0.6913 H       1  LIG1       0.15000000000000002
     48 H          -0.3720    2.2493   -0.8513 H       1  LIG1          0.14
     49 H          -1.3621    1.3662   -2.0347 H       1  LIG1          0.14
     50 H          -1.0272   -2.4903    0.2962 H       1  LIG1          0.13
     51 H           0.7116   -2.6275    0.1753 H       1  LIG1          0.14
     52 H          -0.0406   -1.6434    1.4556 H       1  LIG1       0.15000000000000002
     53 H           0.6743    1.3473    2.6768 H       1  LIG1       0.09999999999999998
     54 H           2.3008    1.4847    0.7145 H       1  LIG1          0.14
     55 H           2.2313   -0.1055    1.4155 H       1  LIG1          0.14
     56 H           0.5278   -2.2628   -3.6389 H       1  LIG1          0.14
     57 H           0.9688   -2.9084   -2.0833 H       1  LIG1          0.13
     58 H           4.5044    0.7652   -3.3299 H       1  LIG1          0.14
     59 H           5.7095    0.2557   -2.1564 H       1  LIG1          0.14
     60 H           4.1786    0.4511   -0.3977 H       1  LIG1          0.14
     61 H           3.1972    1.3318   -1.5467 H       1  LIG1          0.14
     62 H          -1.2559   -1.8406   -1.9812 H       1  LIG1          0.13
     63 H          -0.5939   -0.3514   -2.6445 H       1  LIG1          0.13
     64 H          -5.0229    2.4915    2.1310 H       1  LIG1          0.13
     65 H          -5.3195    2.5570    3.8665 H       1  LIG1          0.12
     66 H          -2.5704   -1.3723    0.0975 H       1  LIG1          0.14
     67 H          -2.9493   -0.2573   -1.2052 H       1  LIG1          0.12
     68 H          -3.9238    0.5346    4.2236 H       1  LIG1          0.12
     69 H          -5.1567    0.1748    3.0296 H       1  LIG1          0.12
     70 H          -4.5661   -0.3205    0.7135 H       1  LIG1       0.10999999999999999
     71 H          -3.9363    1.3115    0.4366 H       1  LIG1          0.12
     72 H          -2.6009    2.9436    1.2582 H       1  LIG1          0.13
     73 H          -1.3206    3.2710    2.4126 H       1  LIG1       0.10999999999999999
     74 H           4.2022   -3.6018   -4.0294 H       1  LIG1          0.14
     75 H           3.0975   -3.7275   -2.6519 H       1  LIG1       0.15000000000000002
     76 H          -1.4861    0.9645    3.3267 H       1  LIG1          0.12
     77 H           1.8075   -0.1788   -3.1286 H       1  LIG1          0.12
     78 H           1.1389    0.8916   -1.2209 H       1  LIG1          0.13
     79 H           4.9077   -2.0553   -2.2591 H       1  LIG1       0.15000000000000002
     80 H           2.3989   -3.7050   -5.3698 H       1  LIG1       0.43000000000000005
     81 H           5.5618   -0.8302   -4.6817 H       1  LIG1       0.42000000000000004
@<TRIPOS>BOND
     1    45     4    1
     2    80    31    1
     3    46     4    1
     4    44     4    1
     5     4    27    1
     6    81    32    1
     7    31    18    1
     8    32    23    1
     9    74    18    1
    10    18    27    1
    11    18    75    1
    12    56     9    1
    13    27    23    1
    14    27    21    1
    15    58    10    1
    16    77    21    1
    17    23    10    1
    18    23    79    1
    19    21     9    1
    20    21    26    1
    21    63    12    1
    22     9    57    1
    23     9    12    1
    24    10    59    1
    25    10    11    1
    26    49     5    1
    27    12    62    1
    28    12    29    1
    29    61    11    1
    30    11    26    1
    31    11    60    1
    32    78    22    1
    33    26    22    1
    34    26     3    1
    35    67    14    1
    36     5    48    1
    37     5    47    1
    38     5    28    1
    39    41     3    1
    40    22    29    1
    41    22     8    1
    42    29    28    1
    43    29     6    1
    44    42     3    1
    45     3    43    1
    46    14    28    1
    47    14    66    1
    48    14    16    1
    49    28    19    1
    50    51     6    1
    51    50     6    1
    52     6    52    1
    53    71    16    1
    54    70    16    1
    55    54     8    1
    56    16    30    1
    57     8    55    1
    58     8     7    1
    59    72    17    1
    60    19     7    2
    61    19    20    1
    62     7    53    1
    63    35     1    1
    64    64    13    1
    65    30    20    1
    66    30    24    1
    67    30    15    1
    68    17    20    1
    69    17    73    1
    70    17    25    1
    71    34    24   ar
    72    20    76    1
    73    24    33   ar
    74     1    36    1
    75     1    25    1
    76     1    37    1
    77    69    15    1
    78    13    15    1
    79    13    25    1
    80    13    65    1
    81    15    68    1
    82    25     2    1
    83     2    39    1
    84     2    38    1
    85     2    40    1
