@<TRIPOS>MOLECULE
PHIQHXFUZVPYII-ZCFIWIBFSA-N	6045052	-556.0043489156151
 26 25 0 0 0
SMALL
MULLIKEN NwChem

@<TRIPOS>ATOM
      1 C          -0.8155    1.0225    1.6055 C.3     1  LIG1      -0.3600000000000003
      2 C           0.1989   -1.0891    2.2652 C.3     1  LIG1      -0.34999999999999964
      3 C          -2.2279   -0.9605    1.8380 C.3     1  LIG1      -0.33000000000000007
      4 C           0.3557    1.1899   -1.2391 C.3     1  LIG1       -0.3700000000000001
      5 C          -0.6271   -0.9295   -0.0632 C.3     1  LIG1      -0.16999999999999993
      6 C          -0.6991    0.0607   -1.2619 C.3     1  LIG1       0.09999999999999964
      7 C           1.6441    0.5286   -0.6868 C.2     1  LIG1       0.5300000000000002
      8 N          -0.8792   -0.4725    1.4057 N.4     1  LIG1       -0.3600000000000003
      9 O          -0.4480   -0.8008   -2.3582 O.3     1  LIG1      -0.6799999999999997
     10 O           2.1145   -0.3767   -1.4284 O.co2   1  LIG1      -0.6400000000000006
     11 O           1.9698    0.8151    0.4987 O.co2   1  LIG1      -0.6199999999999992
     12 H          -1.0475    1.2260    2.6537 H       1  LIG1       0.20999999999999996
     13 H          -1.5603    1.4930    0.9634 H       1  LIG1       0.20999999999999996
     14 H           0.2034    1.3397    1.3531 H       1  LIG1       0.22999999999999998
     15 H           0.0093   -0.8262    3.3089 H       1  LIG1       0.20999999999999996
     16 H           0.1655   -2.1730    2.1393 H       1  LIG1       0.20999999999999996
     17 H           1.1535   -0.6795    1.9185 H       1  LIG1       0.21999999999999997
     18 H          -2.9830   -0.5344    1.1743 H       1  LIG1       0.21999999999999997
     19 H          -2.2533   -2.0498    1.7760 H       1  LIG1       0.20999999999999996
     20 H          -2.4149   -0.6440    2.8662 H       1  LIG1       0.21999999999999997
     21 H           0.4854    1.5092   -2.2777 H       1  LIG1       0.16000000000000003
     22 H           0.0416    2.0558   -0.6533 H       1  LIG1       0.15000000000000002
     23 H           0.3755   -1.3530   -0.0804 H       1  LIG1       0.19999999999999996
     24 H          -1.3431   -1.7298   -0.2519 H       1  LIG1       0.20999999999999996
     25 H          -1.7163    0.4577   -1.3771 H       1  LIG1       0.17000000000000004
     26 H           0.5445   -0.8656   -2.3633 H       1  LIG1       0.41000000000000003
@<TRIPOS>BOND
     1    26     9    1
     2     9     6    1
     3    21     4    1
     4    10     7   ar
     5    25     6    1
     6     6     4    1
     7     6     5    1
     8     4     7    1
     9     4    22    1
    10     7    11   ar
    11    24     5    1
    12    23     5    1
    13     5     8    1
    14    13     1    1
    15    18     3    1
    16    14     1    1
    17     8     1    1
    18     8     3    1
    19     8     2    1
    20     1    12    1
    21    19     3    1
    22     3    20    1
    23    17     2    1
    24    16     2    1
    25     2    15    1
