@<TRIPOS>MOLECULE
PHTQWCKDNZKARW-UHFFFAOYSA-N	6045053	-272.8498702491143
 18 17 0 0 0
SMALL
MULLIKEN NwChem

@<TRIPOS>ATOM
      1 C           0.3948   -0.8481   -2.0616 C.3     1  LIG1      -0.45999999999999996
      2 C           1.0577    1.2330    0.2485 C.3     1  LIG1      -0.45999999999999996
      3 C          -0.5591    0.1888   -1.4516 C.3     1  LIG1      -0.2599999999999998
      4 C          -0.4660   -0.6564    0.9471 C.3     1  LIG1       -0.03000000000000025
      5 C          -0.3005    0.5535    0.0257 C.3     1  LIG1      -0.08000000000000007
      6 O          -0.4617   -0.1877    2.2946 O.3     1  LIG1      -0.6699999999999999
      7 H           0.1493   -1.0234   -3.1152 H       1  LIG1       0.15000000000000002
      8 H           0.3320   -1.8137   -1.5466 H       1  LIG1       0.15000000000000002
      9 H           1.4377   -0.5155   -2.0180 H       1  LIG1       0.15000000000000002
     10 H           1.1575    2.1276   -0.3778 H       1  LIG1          0.14
     11 H           1.1660    1.5283    1.2958 H       1  LIG1       0.15000000000000002
     12 H           1.8876    0.5583    0.0049 H       1  LIG1       0.15000000000000002
     13 H          -1.5912   -0.1767   -1.5491 H       1  LIG1          0.13
     14 H          -0.5068    1.1121   -2.0443 H       1  LIG1          0.14
     15 H          -1.4116   -1.1751    0.7122 H       1  LIG1          0.13
     16 H           0.3545   -1.3734    0.7787 H       1  LIG1          0.13
     17 H          -1.0836    1.2658    0.3237 H       1  LIG1          0.13
     18 H          -0.4740   -0.9591    2.8802 H       1  LIG1       0.43000000000000005
@<TRIPOS>BOND
     1     7     1    1
     2     1     9    1
     3     1     8    1
     4     1     3    1
     5    14     3    1
     6    13     3    1
     7     3     5    1
     8    10     2    1
     9    12     2    1
    10     5     2    1
    11     5    17    1
    12     5     4    1
    13     2    11    1
    14    15     4    1
    15    16     4    1
    16     4     6    1
    17     6    18    1
