@<TRIPOS>MOLECULE
PIUSLWSYOYFRFR-BQBZGAKWSA-M	6045054	-1518.8956092287622
 40 39 0 0 0
SMALL
MULLIKEN NwChem

@<TRIPOS>ATOM
      1 C           0.7078   -3.0631   -0.6942 C.3     1  UNK1      -0.2400000000000002
      2 C           0.5642   -2.0956    0.4914 C.3     1  UNK1       -0.3899999999999997
      3 CA         -2.5025    1.9159    2.1211 C.3     2  GLY2       -0.21999999999999975
      4 C          -0.5794    0.9210   -0.2381 C.3     1  UNK1       -0.4400000000000004
      5 C           1.8691    1.8448   -1.5323 C.3     1  UNK1       -0.17999999999999972
      6 C           0.2980   -2.4458   -2.0430 C.3     1  UNK1       -0.08000000000000007
      7 C           0.1583    0.8950    1.1305 C.3     1  UNK1       -0.04999999999999982
      8 C           1.6204   -0.9452    0.4551 C.2     1  UNK1       0.5099999999999998
      9 C          -3.0558    2.8677    3.1743 C.2     2  GLY2       0.5800000000000001
     10 C          -0.7023    0.3959    2.3323 C.2     1  UNK1       0.4900000000000002
     11 C           0.7145   -3.2804   -3.2418 C.2     1  UNK1       0.6100000000000003
     12 N          -1.1594   -2.2640   -2.1210 N.3     1  UNK1        -0.79
     13 N          -1.8347    0.8031    2.7617 N.2     2  GLY2      -0.5099999999999998
     14 N           1.4572    0.2564    1.0241 N.am    1  UNK1      -0.6299999999999999
     15 O           2.2142    0.6113   -2.0765 O.3     1  UNK1      -0.6600000000000001
     16 O           2.7111   -1.2527   -0.1012 O.2     1  UNK1      -0.6600000000000001
     17 O          -4.2105    3.2304    3.2748 O.2     2  GLY2      -0.5099999999999998
     18 OXT        -2.0836    3.3254    4.0026 O.3     2  GLY2      -0.5700000000000003
     19 O          -0.0705   -0.5535    3.0486 O.2     1  UNK1      -0.6300000000000008
     20 O           0.0761   -3.3993   -4.2696 O.2     1  UNK1      -0.5299999999999994
     21 O           1.9347   -3.8574   -3.0981 O.3     1  UNK1      -0.5800000000000001
     22 S           0.0300    2.1969   -1.4153 S.3     1  UNK1      -0.030000000000001137
     23 H           0.0953   -3.9591   -0.5292 H       1  UNK1          0.14
     24 H           1.7582   -3.3520   -0.7506 H       1  UNK1       0.15000000000000002
     25 H          -0.4609   -1.7266    0.5983 H       1  UNK1       0.15000000000000002
     26 H           0.7499   -2.6599    1.4163 H       1  UNK1       0.17000000000000004
     27 HA1        -1.8688    2.5365    1.4633 H       2  GLY2       0.18999999999999995
     28 HA2        -3.3678    1.5830    1.5325 H       2  GLY2       0.18000000000000005
     29 H          -0.4743   -0.0442   -0.7276 H       1  UNK1       0.18999999999999995
     30 H          -1.6503    1.1252   -0.1542 H       1  UNK1       0.20999999999999996
     31 H           2.1997    2.6520   -2.2000 H       1  UNK1       0.17000000000000004
     32 H           2.2886    1.9778   -0.5329 H       1  UNK1       0.18000000000000005
     33 H           0.8684   -1.5053   -2.1633 H       1  UNK1       0.17000000000000004
     34 H           0.3575    1.9480    1.3853 H       1  UNK1       0.18000000000000005
     35 H          -1.3957   -1.9212   -3.0506 H       1  UNK1       0.32999999999999996
     36 H          -1.4344   -1.5392   -1.4643 H       1  UNK1       0.33999999999999997
     37 H           2.5264    0.0187   -1.3449 H       1  UNK1       0.43999999999999995
     38 HXT        -2.5383    3.9112    4.6372 H       2  GLY2       0.44999999999999996
     39 H           0.8240   -0.5971    2.6202 H       1  UNK1       0.42000000000000004
     40 H           2.1113   -4.2926   -3.9528 H       1  UNK1       0.44999999999999996
@<TRIPOS>BOND
     1    20    11    2
     2    40    21    1
     3    11    21    1
     4    11     6    1
     5    35    12    1
     6    31     5    1
     7    33     6    1
     8    12     6    1
     9    12    36    1
    10    15     5    1
    11    15    37    1
    12     6     1    1
    13     5    22    1
    14     5    32    1
    15    22     4    1
    16    24     1    1
    17    29     4    1
    18     1    23    1
    19     1     2    1
    20     4    30    1
    21     4     7    1
    22    16     8    2
    23     8     2    1
    24     8    14   am
    25     2    25    1
    26     2    26    1
    27    14     7    1
    28     7    34    1
    29     7    10    1
    30    27     3    1
    31    28     3    1
    32     3    13    1
    33     3     9    1
    34    10    13    2
    35    10    19    1
    36    39    19    1
    37     9    17    2
    38     9    18    1
    39    18    38    1
