@<TRIPOS>MOLECULE
PJDXUYNCNWFPCZ-IUYQGCFVSA-K	11085249	-1908.8774329933472
 36 37 0 0 0
SMALL
MULLIKEN NwChem

@<TRIPOS>ATOM
      1 C          -0.9759    0.2832   -2.0656 C.3     1  LIG1      -0.46999999999999975
      2 C           1.3275    0.9891    1.8905 C.3     1  LIG1      -0.45999999999999996
      3 C          -1.2596   -0.4209   -0.7262 C.3     1  LIG1       -0.03000000000000025
      4 C           0.7928    0.2208    0.6919 C.3     1  LIG1       0.05999999999999961
      5 C          -0.6969    0.4066    0.4338 C.2     1  LIG1       0.29000000000000004
      6 C          -2.7742    1.4019    0.7783 C.ar    1  LIG1       0.1200000000000001
      7 C          -3.3970    0.4512    0.0213 C.ar    1  LIG1       0.5099999999999998
      8 C          -3.6160    2.4808    1.3737 C.ar    1  LIG1       0.46999999999999975
      9 C          -5.5836    1.4817    0.4607 C.ar    1  LIG1       0.5800000000000001
     10 N          -6.8947    1.3815    0.3271 N.pl3   1  LIG1      -0.8300000000000001
     11 N          -2.7011   -0.6418   -0.4826 N.pl3   1  LIG1      -0.6500000000000004
     12 N          -1.4017    1.2691    1.0779 N.2     1  LIG1      -0.5800000000000001
     13 N          -4.7527    0.5130   -0.2281 N.ar    1  LIG1      -0.7300000000000004
     14 N          -4.9826    2.4477    1.1644 N.ar    1  LIG1      -0.6699999999999999
     15 O          -3.0952    3.3920    2.0397 O.2     1  LIG1      -0.6699999999999999
     16 O           3.6941    1.1315   -0.4304 O.3     1  LIG1      -0.6999999999999993
     17 O           5.8254   -0.4076   -0.4420 O.2     1  LIG1      -0.6899999999999995
     18 O           4.0418   -0.6778   -2.2708 O.3     1  LIG1      -0.7599999999999998
     19 O           1.6075   -1.6124   -1.5910 O.2     1  LIG1        -0.75
     20 O           1.9778   -3.4505    0.2643 O.3     1  LIG1      -0.6600000000000001
     21 O           1.0455   -1.1863    0.8902 O.3     1  LIG1      -0.5999999999999996
     22 O           3.5134   -1.3963    0.1282 O.3     1  LIG1      -0.6899999999999995
     23 P           4.3626   -0.1917   -0.7258 P.3     1  LIG1       1.0500000000000007
     24 P           2.0255   -2.0158   -0.1736 P.3     1  LIG1       1.1600000000000001
     25 H          -1.4660   -0.2590   -2.8904 H       1  LIG1       0.15000000000000002
     26 H          -1.3509    1.3141   -2.0549 H       1  LIG1       0.15000000000000002
     27 H           0.1016    0.2652   -2.2493 H       1  LIG1       0.17000000000000004
     28 H           2.4140    0.8747    1.8928 H       1  LIG1       0.15000000000000002
     29 H           0.8911    0.5980    2.8171 H       1  LIG1       0.15000000000000002
     30 H           1.0697    2.0497    1.8109 H       1  LIG1       0.15000000000000002
     31 H          -0.7630   -1.3909   -0.7471 H       1  LIG1       0.17000000000000004
     32 H           1.3457    0.5644   -0.1921 H       1  LIG1       0.17000000000000004
     33 H          -7.0882    0.5896   -0.3019 H       1  LIG1          0.27
     34 H          -3.1540   -1.0618   -1.2899 H       1  LIG1          0.36
     35 H          -5.2016   -0.3715   -0.4419 H       1  LIG1          0.36
     36 H           3.0910   -0.9763   -2.2588 H       1  LIG1       0.43999999999999995
@<TRIPOS>BOND
     1    25     1    1
     2    18    36    1
     3    18    23    1
     4    27     1    1
     5     1    26    1
     6     1     3    1
     7    19    24    2
     8    34    11    1
     9    31     3    1
    10     3    11    1
    11     3     5    1
    12    23    17    2
    13    23    16    1
    14    23    22    1
    15    11     7    1
    16    35    13    1
    17    33    10    1
    18    13     7   ar
    19    13     9   ar
    20    32     4    1
    21    24    22    1
    22    24    20    1
    23    24    21    1
    24     7     6   ar
    25    10     9    1
    26     5     4    1
    27     5    12    2
    28     9    14   ar
    29     4    21    1
    30     4     2    1
    31     6    12    1
    32     6     8   ar
    33    14     8   ar
    34     8    15    2
    35    30     2    1
    36     2    28    1
    37     2    29    1
