@<TRIPOS>MOLECULE
PJRXVIJAERNUIP-VKHMYHEASA-L	6045056	-1118.328929695679
 22 21 0 0 0
SMALL
MULLIKEN NwChem

@<TRIPOS>ATOM
      1 C          -0.5574    1.4174    1.1894 C.3     1  LIG1      -0.2599999999999998
      2 C          -1.0370    1.9466   -0.1734 C.3     1  LIG1       -0.33000000000000007
      3 CA         -1.2350    0.0966    1.5979 C.3     1  LIG1       -0.08999999999999986
      4 C          -0.6163    0.9998   -1.3032 C.2     1  LIG1       0.6100000000000003
      5 C          -0.3542   -0.6229    2.6748 C.2     1  LIG1          0.54
      6 N          -2.6197    0.3583    2.0693 N.3     1  LIG1      -0.7800000000000002
      7 O          -1.4233    0.4730   -2.0500 O.2     1  LIG1      -0.5500000000000007
      8 OXT        -0.8081   -0.6504    3.8498 O.co2   1  LIG1      -0.6500000000000004
      9 O           0.7509   -1.0772    2.2592 O.co2   1  LIG1      -0.6500000000000004
     10 O           2.9820   -0.2440   -1.1408 O.3     1  LIG1      -0.6899999999999995
     11 O           0.8263   -1.5542   -0.4743 O.3     1  LIG1        -0.75
     12 O           1.3059   -1.1799   -2.9507 O.2     1  LIG1      -0.6799999999999997
     13 O           0.7082    0.8603   -1.3243 O.3     1  LIG1      -0.5800000000000001
     14 P           1.6070   -0.6506   -1.5832 P.3     1  LIG1       1.0500000000000007
     15 H          -0.7599    2.1637    1.9727 H       1  LIG1          0.14
     16 H           0.5236    1.2598    1.1432 H       1  LIG1       0.15000000000000002
     17 H          -2.1273    2.0445   -0.1856 H       1  LIG1       0.15000000000000002
     18 H          -0.5885    2.9331   -0.3670 H       1  LIG1       0.17000000000000004
     19 HA         -1.2657   -0.5550    0.7177 H       1  LIG1          0.13
     20 H1         -3.1555   -0.4916    1.8817 H       1  LIG1       0.31000000000000005
     21 H2         -2.4952    0.3270    3.0905 H       1  LIG1       0.30000000000000004
     22 H           0.9585   -1.2746    0.4759 H       1  LIG1       0.44999999999999996
@<TRIPOS>BOND
     1    12    14    2
     2     7     4    2
     3    14    13    1
     4    14    10    1
     5    14    11    1
     6    13     4    1
     7     4     2    1
     8    11    22    1
     9    18     2    1
    10    17     2    1
    11     2     1    1
    12    19     3    1
    13    16     1    1
    14     1     3    1
    15     1    15    1
    16     3     6    1
    17     3     5    1
    18    20     6    1
    19     6    21    1
    20     9     5   ar
    21     5     8   ar
