@<TRIPOS>MOLECULE
PJWIPEXIFFQAQZ-PUFIMZNGSA-K	11085248	-1366.7044625175329
 28 27 0 0 0
SMALL
MULLIKEN NwChem

@<TRIPOS>ATOM
      1 C           2.2633   -0.9454   -0.6391 C.3     1  LIG1       -0.3799999999999999
      2 C          -0.7672    1.3224    1.1866 C.3     1  LIG1       -0.040000000000000036
      3 C           0.8362   -0.4966   -0.9602 C.3     1  LIG1       0.1299999999999999
      4 C           3.3998   -0.2762   -1.4283 C.2     1  LIG1       0.3700000000000001
      5 C          -0.3138   -0.1556    1.3777 C.3     1  LIG1       0.04999999999999982
      6 C          -0.1982   -1.0176    0.0953 C.3     1  LIG1       0.15000000000000036
      7 C           4.7677   -1.0321   -1.4308 C.2     1  LIG1       0.45999999999999996
      8 O           0.4686   -1.0302   -2.2369 O.3     1  LIG1      -0.7100000000000009
      9 O           3.2701    0.8383   -1.9217 O.2     1  LIG1      -0.5299999999999994
     10 O          -1.0827   -0.8436    2.3535 O.3     1  LIG1      -0.7300000000000004
     11 O          -1.4322   -1.2295   -0.5688 O.3     1  LIG1      -0.7699999999999996
     12 O           5.1426   -1.3564   -0.2697 O.co2   1  LIG1      -0.6500000000000004
     13 O           5.3346   -1.2076   -2.5361 O.co2   1  LIG1      -0.6500000000000004
     14 O          -3.3096   -0.4140    1.0394 O.3     1  LIG1      -0.8100000000000005
     15 O          -4.3927    1.6638   -0.0971 O.2     1  LIG1      -0.7400000000000002
     16 O          -3.5334    1.7959    2.3763 O.3     1  LIG1      -0.7599999999999998
     17 O          -1.8800    1.5744    0.3703 O.3     1  LIG1      -0.6300000000000008
     18 P          -3.4522    1.1685    0.9882 P.3     1  LIG1       0.9900000000000002
     19 H           2.3345   -2.0338   -0.7649 H       1  LIG1       0.16000000000000003
     20 H           2.4941   -0.7588    0.4194 H       1  LIG1       0.18999999999999995
     21 H           0.0861    1.8693    0.7458 H       1  LIG1          0.13
     22 H          -0.9325    1.7126    2.2061 H       1  LIG1          0.12
     23 H           0.8047    0.6020   -1.0041 H       1  LIG1          0.12
     24 H           0.7094   -0.0864    1.7928 H       1  LIG1          0.13
     25 H           0.1728   -2.0014    0.4491 H       1  LIG1       0.09999999999999998
     26 H          -0.5060   -1.1066   -2.1201 H       1  LIG1       0.42000000000000004
     27 H          -2.0354   -0.7432    2.0210 H       1  LIG1       0.42000000000000004
     28 H          -2.2163   -0.8509   -0.0194 H       1  LIG1       0.44999999999999996
@<TRIPOS>BOND
     1    13     7   ar
     2     8    26    1
     3     8     3    1
     4     9     4    2
     5     7     4    1
     6     7    12   ar
     7     4     1    1
     8    23     3    1
     9     3     1    1
    10     3     6    1
    11    19     1    1
    12     1    20    1
    13    11    28    1
    14    11     6    1
    15    15    18    2
    16     6    25    1
    17     6     5    1
    18    17    18    1
    19    17     2    1
    20    21     2    1
    21    18    14    1
    22    18    16    1
    23     2     5    1
    24     2    22    1
    25     5    24    1
    26     5    10    1
    27    27    10    1
