@<TRIPOS>MOLECULE
PKEPPDGGTSZLBL-SKCNUYALSA-N	6045058	-1130.022304933621
 72 75 0 0 0
SMALL
MULLIKEN NwChem

@<TRIPOS>ATOM
      1 C          -4.4213    4.5486   -2.8215 C.3     1  LIG1      -0.5300000000000002
      2 C          -2.5480    5.8737   -1.7463 C.3     1  LIG1      -0.5199999999999996
      3 C          -2.7596    1.6414    2.0021 C.3     1  LIG1      -0.4800000000000004
      4 C           2.7264    0.1377    0.9962 C.3     1  LIG1      -0.4900000000000002
      5 C          -2.0074   -0.5122   -2.1768 C.3     1  LIG1      -0.4900000000000002
      6 C          -4.5437    2.8773   -0.1667 C.3     1  LIG1      -0.3200000000000003
      7 C          -3.6000    4.0049   -0.4932 C.2     1  LIG1      -0.1900000000000004
      8 C          -3.9200    1.4617   -0.2471 C.3     1  LIG1      -0.2699999999999996
      9 C           1.8860   -2.4228    2.3097 C.3     1  LIG1      -0.3099999999999996
     10 C           0.5871   -2.3778    1.5503 C.2     1  LIG1      -0.21999999999999975
     11 C          -2.8586   -1.3474    0.7003 C.3     1  LIG1      -0.29000000000000004
     12 C          -2.0780   -2.5718    0.1470 C.3     1  LIG1      -0.2999999999999998
     13 C           5.2753   -2.2296   -0.2517 C.3     1  LIG1      -0.28000000000000025
     14 C           1.2772   -0.5199   -1.5921 C.3     1  LIG1      -0.2999999999999998
     15 C           4.2272   -1.1573   -0.5790 C.3     1  LIG1      -0.3200000000000003
     16 C           0.1014    0.3292   -1.0866 C.3     1  LIG1      -0.2999999999999998
     17 C           4.4222   -2.2577    2.1449 C.3     1  LIG1      -0.3099999999999996
     18 C          -3.5363    4.7394   -1.6137 C.2     1  LIG1      0.16999999999999993
     19 C          -2.5907    1.2779    0.5144 C.3     1  LIG1      -0.08000000000000007
     20 C           3.0971   -2.3526    1.3723 C.3     1  LIG1      -0.11000000000000032
     21 C           5.6704   -2.1758    1.2207 C.3     1  LIG1       0.15000000000000036
     22 C           0.4903   -2.0472    0.2565 C.2     1  LIG1      0.16000000000000014
     23 C          -1.9551   -0.1311    0.4050 C.3     1  LIG1      -0.09999999999999964
     24 C          -0.8044   -2.0147   -0.5349 C.3     1  LIG1      -0.17999999999999972
     25 C           1.7023   -1.6157   -0.5684 C.3     1  LIG1      -0.16000000000000014
     26 C           2.9338   -1.2283    0.3093 C.3     1  LIG1      0.1299999999999999
     27 C          -1.1735   -0.5262   -0.8836 C.3     1  LIG1      0.11000000000000032
     28 O           6.5845   -3.2536    1.4402 O.3     1  LIG1      -0.6899999999999995
     29 H          -3.8132    4.3176   -3.7074 H       1  LIG1       0.16000000000000003
     30 H          -4.9659    5.4750   -3.0530 H       1  LIG1       0.16000000000000003
     31 H          -5.1538    3.7466   -2.7020 H       1  LIG1       0.16000000000000003
     32 H          -1.9053    5.9682   -0.8646 H       1  LIG1       0.16000000000000003
     33 H          -1.9058    5.7406   -2.6284 H       1  LIG1       0.16000000000000003
     34 H          -3.0760    6.8280   -1.8872 H       1  LIG1       0.16000000000000003
     35 H          -3.4962    0.9850    2.4824 H       1  LIG1          0.14
     36 H          -1.8131    1.5331    2.5436 H       1  LIG1          0.14
     37 H          -3.1005    2.6728    2.1390 H       1  LIG1       0.15000000000000002
     38 H           3.5599    0.3676    1.6697 H       1  LIG1       0.15000000000000002
     39 H           2.6795    0.9447    0.2568 H       1  LIG1       0.15000000000000002
     40 H           1.8010    0.1692    1.5782 H       1  LIG1       0.15000000000000002
     41 H          -1.4276   -0.9466   -3.0012 H       1  LIG1          0.14
     42 H          -2.9325   -1.0918   -2.0852 H       1  LIG1       0.15000000000000002
     43 H          -2.2752    0.5073   -2.4710 H       1  LIG1       0.15000000000000002
     44 H          -4.9346    3.0364    0.8479 H       1  LIG1          0.14
     45 H          -5.4178    2.8940   -0.8275 H       1  LIG1          0.14
     46 H          -2.8848    4.2451    0.2955 H       1  LIG1          0.13
     47 H          -4.6633    0.7519    0.1410 H       1  LIG1          0.13
     48 H          -3.7769    1.2157   -1.3028 H       1  LIG1          0.14
     49 H           1.9399   -3.3502    2.8995 H       1  LIG1          0.14
     50 H           1.9212   -1.6073    3.0494 H       1  LIG1       0.15000000000000002
     51 H          -0.3067   -2.6434    2.1098 H       1  LIG1          0.13
     52 H          -3.8253   -1.2574    0.1942 H       1  LIG1          0.14
     53 H          -3.0718   -1.4352    1.7710 H       1  LIG1          0.13
     54 H          -2.6811   -3.0997   -0.5981 H       1  LIG1          0.14
     55 H          -1.8414   -3.3087    0.9193 H       1  LIG1          0.14
     56 H           6.1700   -2.0919   -0.8687 H       1  LIG1          0.14
     57 H           4.8949   -3.2341   -0.4754 H       1  LIG1          0.14
     58 H           0.9845   -0.9956   -2.5363 H       1  LIG1          0.14
     59 H           2.1315    0.1213   -1.8369 H       1  LIG1          0.14
     60 H           3.9655   -1.2351   -1.6412 H       1  LIG1          0.14
     61 H           4.6955   -0.1706   -0.4610 H       1  LIG1          0.14
     62 H          -0.0985    1.1436   -1.7939 H       1  LIG1          0.13
     63 H           0.3783    0.8106   -0.1424 H       1  LIG1          0.14
     64 H           4.5237   -3.1498    2.7776 H       1  LIG1          0.14
     65 H           4.3943   -1.3954    2.8223 H       1  LIG1          0.14
     66 H          -1.8630    1.9827    0.0834 H       1  LIG1          0.12
     67 H           3.1081   -3.3020    0.8182 H       1  LIG1          0.13
     68 H           6.1830   -1.2143    1.3976 H       1  LIG1          0.12
     69 H          -1.1763   -0.1480    1.1812 H       1  LIG1          0.12
     70 H          -0.6134   -2.5628   -1.4685 H       1  LIG1          0.13
     71 H           2.0153   -2.4958   -1.1549 H       1  LIG1          0.13
     72 H           6.8875   -3.1987    2.3600 H       1  LIG1       0.42000000000000004
@<TRIPOS>BOND
     1    29     1    1
     2    30     1    1
     3    41     5    1
     4     1    31    1
     5     1    18    1
     6    33     2    1
     7    58    14    1
     8    43     5    1
     9     5    42    1
    10     5    27    1
    11    34     2    1
    12    59    14    1
    13    62    16    1
    14     2    18    1
    15     2    32    1
    16    60    15    1
    17    18     7    2
    18    14    16    1
    19    14    25    1
    20    70    24    1
    21    48     8    1
    22    71    25    1
    23    16    27    1
    24    16    63    1
    25    27    24    1
    26    27    23    1
    27    56    13    1
    28    45     6    1
    29    54    12    1
    30    15    61    1
    31    15    13    1
    32    15    26    1
    33    25    22    1
    34    25    26    1
    35    24    12    1
    36    24    22    1
    37     7     6    1
    38     7    46    1
    39    57    13    1
    40    13    21    1
    41     8     6    1
    42     8    47    1
    43     8    19    1
    44     6    44    1
    45    66    19    1
    46    12    11    1
    47    12    55    1
    48    52    11    1
    49    22    10    2
    50    39     4    1
    51    26     4    1
    52    26    20    1
    53    23    19    1
    54    23    11    1
    55    23    69    1
    56    19     3    1
    57    11    53    1
    58    67    20    1
    59     4    40    1
    60     4    38    1
    61    21    68    1
    62    21    28    1
    63    21    17    1
    64    20    17    1
    65    20     9    1
    66    28    72    1
    67    10    51    1
    68    10     9    1
    69     3    37    1
    70     3    35    1
    71     3    36    1
    72    17    64    1
    73    17    65    1
    74     9    49    1
    75     9    50    1
