@<TRIPOS>MOLECULE
PKUWKAXTAVNIJR-UHFFFAOYSA-M	6045059	-1123.7745835884566
 19 18 0 0 0
SMALL
MULLIKEN NwChem

@<TRIPOS>ATOM
      1 C          -2.3704   -2.2054    0.2559 C.3     1  LIG1      -0.45999999999999996
      2 C          -0.2592    1.9857   -2.4464 C.3     1  LIG1      -0.45999999999999996
      3 C          -1.5267   -1.5819    1.3663 C.3     1  LIG1       -0.040000000000000036
      4 C          -0.8451    1.9272   -1.0387 C.3     1  LIG1       -0.040000000000000036
      5 O           0.2198   -0.8657   -1.0796 O.2     1  LIG1      -0.6799999999999997
      6 O          -1.1320   -0.2528    1.0421 O.3     1  LIG1      -0.5700000000000003
      7 O           0.1431    1.5424   -0.0795 O.3     1  LIG1      -0.5600000000000005
      8 P           0.3181   -0.0833    0.2057 P.3     1  LIG1       0.9900000000000002
      9 S           1.8517   -0.3193    1.4530 S.3     1  LIG1       -0.6999999999999993
     10 H          -3.2623   -1.5940    0.0699 H       1  LIG1       0.15000000000000002
     11 H          -2.6945   -3.2194    0.5312 H       1  LIG1       0.15000000000000002
     12 H          -1.7774   -2.2436   -0.6614 H       1  LIG1       0.16000000000000003
     13 H           0.0785    0.9854   -2.7288 H       1  LIG1       0.16000000000000003
     14 H          -1.0093    2.3391   -3.1686 H       1  LIG1       0.15000000000000002
     15 H           0.5986    2.6680   -2.4709 H       1  LIG1       0.15000000000000002
     16 H          -2.1049   -1.5165    2.2991 H       1  LIG1       0.15000000000000002
     17 H          -0.6444   -2.2035    1.5766 H       1  LIG1          0.14
     18 H          -1.6999    1.2400   -1.0077 H       1  LIG1       0.15000000000000002
     19 H          -1.2029    2.9177   -0.7241 H       1  LIG1       0.16000000000000003
@<TRIPOS>BOND
     1    14     2    1
     2    13     2    1
     3    15     2    1
     4     2     4    1
     5     5     8    2
     6     4    18    1
     7     4    19    1
     8     4     7    1
     9    12     1    1
    10     7     8    1
    11    10     1    1
    12     8     6    1
    13     8     9    1
    14     1    11    1
    15     1     3    1
    16     6     3    1
    17     3    17    1
    18     3    16    1
