@<TRIPOS>MOLECULE
PKVVTUWHANFMQC-UHFFFAOYSA-M	6045060	-534.9941851246607
 19 18 0 0 0
SMALL
MULLIKEN NwChem

@<TRIPOS>ATOM
      1 C           0.4973   -1.5420   -0.9729 C.3     1  LIG1      -0.46999999999999975
      2 C           0.1396    0.5591   -2.3351 C.3     1  LIG1      -0.45999999999999996
      3 C          -1.6992   -0.2799   -0.8457 C.3     1  LIG1       -0.019999999999999574
      4 C           0.3623    0.7432    0.1567 C.2     1  LIG1       0.3700000000000001
      5 C           0.7521    0.0461    1.4799 C.2     1  LIG1       0.5099999999999998
      6 C          -0.1518   -0.1504   -1.0045 C.3     1  LIG1       -0.019999999999999574
      7 O          -2.1259   -1.0774    0.2261 O.3     1  LIG1      -0.7100000000000009
      8 O           0.3725    1.9617    0.0316 O.2     1  LIG1      -0.5299999999999994
      9 O           1.9308    0.1440    1.8519 O.co2   1  LIG1      -0.6199999999999992
     10 O          -0.2252   -0.5609    2.0257 O.co2   1  LIG1      -0.6400000000000006
     11 H           0.1382   -2.1470   -1.8168 H       1  LIG1       0.15000000000000002
     12 H           0.2444   -2.0604   -0.0463 H       1  LIG1       0.15000000000000002
     13 H           1.5891   -1.4644   -1.0401 H       1  LIG1       0.15000000000000002
     14 H          -0.2647   -0.0164   -3.1787 H       1  LIG1       0.15000000000000002
     15 H          -0.2972    1.5619   -2.3420 H       1  LIG1       0.15000000000000002
     16 H           1.2202    0.6712   -2.4846 H       1  LIG1       0.15000000000000002
     17 H          -2.1078    0.7485   -0.7933 H       1  LIG1          0.12
     18 H          -2.0944   -0.7351   -1.7687 H       1  LIG1          0.14
     19 H          -1.5246   -0.8642    1.0005 H       1  LIG1       0.42000000000000004
@<TRIPOS>BOND
     1    14     2    1
     2    16     2    1
     3    15     2    1
     4     2     6    1
     5    11     1    1
     6    18     3    1
     7    13     1    1
     8     6     1    1
     9     6     3    1
    10     6     4    1
    11     1    12    1
    12     3    17    1
    13     3     7    1
    14     8     4    2
    15     4     5    1
    16     7    19    1
    17     5     9   ar
    18     5    10   ar
