@<TRIPOS>MOLECULE
PKYFHKIYHBRTPI-UHFFFAOYSA-L	11085247	-1040.2028293844842
 22 22 0 0 0
SMALL
MULLIKEN NwChem

@<TRIPOS>ATOM
      1 C           4.8732   -0.5683    0.1454 C.3     1  LIG1       -0.5300000000000002
      2 C           1.8501    1.4444   -0.5209 C.3     1  LIG1       -0.08999999999999986
      3 C          -0.6298    1.2069   -0.1257 C.3     1  LIG1       -0.09999999999999964
      4 C           3.4515   -0.0687    0.0525 C.2     1  LIG1          0.54
      5 C           0.7995    0.7212   -0.0471 C.2     1  LIG1       0.09999999999999964
      6 C           1.0649   -0.5955    0.5745 C.2     1  LIG1       0.4400000000000004
      7 N           0.3208   -1.4645    1.1173 N.pl3   1  LIG1      -0.8099999999999996
      8 N           3.2051    1.0877   -0.4905 N.2     1  LIG1      -0.5499999999999998
      9 N           2.4845   -0.8790    0.5575 N.pl3   1  LIG1      -0.6399999999999997
     10 O          -3.5202   -1.0511   -1.2045 O.2     1  LIG1        -0.75
     11 O          -3.5929    1.1804    0.1728 O.3     1  LIG1      -0.7799999999999994
     12 O          -2.3469   -0.8763    1.1282 O.3     1  LIG1      -0.7899999999999991
     13 O          -1.3779    0.3470   -0.9214 O.3     1  LIG1      -0.6500000000000004
     14 P          -2.9149   -0.1578   -0.1307 P.3     1  LIG1       0.9499999999999993
     15 H           5.1652   -0.7537    1.1893 H       1  LIG1       0.18999999999999995
     16 H           5.5410    0.1826   -0.2832 H       1  LIG1       0.18000000000000005
     17 H           5.0022   -1.5141   -0.4000 H       1  LIG1       0.18999999999999995
     18 H           1.6576    2.4132   -0.9817 H       1  LIG1       0.15000000000000002
     19 H          -0.6206    2.2486   -0.5155 H       1  LIG1       0.10999999999999999
     20 H          -1.0350    1.2596    0.8982 H       1  LIG1          0.13
     21 H          -0.7250   -1.2288    1.0688 H       1  LIG1          0.36
     22 H           2.7099   -1.7738    0.9763 H       1  LIG1           0.36
@<TRIPOS>BOND
     1    10    14    2
     2    18     2    1
     3    13    14    1
     4    13     3    1
     5     2     8    1
     6     2     5    1
     7    19     3    1
     8     8     4    2
     9    17     1    1
    10    16     1    1
    11    14    11    1
    12    14    12    1
    13     3     5    1
    14     3    20    1
    15     5     6    2
    16     4     1    1
    17     4     9    1
    18     1    15    1
    19     9     6    1
    20     9    22    1
    21     6     7    1
    22    21     7    1
