@<TRIPOS>MOLECULE
PLIKAWJENQZMHA-UHFFFAOYSA-N	6045063	-362.7384682944393
 15 15 0 0 0
SMALL
MULLIKEN NwChem

@<TRIPOS>ATOM
      1 C          -0.7547    1.1563    0.0243 C.ar    1  LIG1      -0.20999999999999996
      2 C           1.3856    0.0557    0.0375 C.ar    1  LIG1      -0.20999999999999996
      3 C          -1.3906   -0.0852   -0.0085 C.ar    1  LIG1      -0.21999999999999975
      4 C           0.7544   -1.1837    0.0046 C.ar    1  LIG1      -0.20000000000000018
      5 C           0.6438    1.2490    0.0487 C.ar    1  LIG1       0.2699999999999996
      6 C          -0.6407   -1.2633   -0.0171 C.ar    1  LIG1       0.3200000000000003
      7 N           1.2872    2.4977    0.1499 N.pl3   1  LIG1      -0.8200000000000003
      8 O          -1.2069   -2.5159   -0.0500 O.3     1  LIG1      -0.6899999999999995
      9 H          -1.3548    2.0635    0.0368 H       1  LIG1       0.15000000000000002
     10 H           2.4722    0.1014    0.0612 H       1  LIG1       0.15000000000000002
     11 H          -2.4782   -0.1315   -0.0298 H       1  LIG1       0.16000000000000003
     12 H           1.3320   -2.1028   -0.0054 H       1  LIG1       0.15000000000000002
     13 H           2.2255    2.5038   -0.2338 H       1  LIG1          0.35
     14 H           0.7504    3.2653   -0.2377 H       1  LIG1          0.35
     15 H          -2.1714   -2.4217   -0.0383 H       1  LIG1       0.43999999999999995
@<TRIPOS>BOND
     1    14     7    1
     2    13     7    1
     3     8    15    1
     4     8     6    1
     5    11     3    1
     6     6     3   ar
     7     6     4   ar
     8     3     1   ar
     9    12     4    1
    10     4     2   ar
    11     1     9    1
    12     1     5   ar
    13     2     5   ar
    14     2    10    1
    15     5     7    1
