@<TRIPOS>MOLECULE
PLPVRWUZGSFJJB-OWOJBTEDSA-L	11085245	-1526.5742626824383
 15 14 0 0 0
SMALL
MULLIKEN NwChem

@<TRIPOS>ATOM
      1 C          -0.4942    0.9051    0.5449 C.2     1  LIG1       -0.20999999999999996
      2 C          -1.6971    0.7132   -0.0008 C.2     1  LIG1       -0.09999999999999964
      3 C           0.4890   -0.1840    0.9218 C.2     1  LIG1       0.46999999999999975
      4 C           1.3737   -0.6576   -0.2165 C.3     1  LIG1       -0.3899999999999997
      5 C          -2.3327   -0.6378   -0.4282 C.2     1  LIG1       0.5499999999999998
      6 C           2.4536    0.4622   -0.6326 C.2     1  LIG1       0.5800000000000001
      7 CL         -2.7177    2.2135   -0.2496 Cl      1  LIG1      -0.14000000000000057
      8 CL          2.1960   -2.2535    0.2090 Cl      1  LIG1      -0.16000000000000014
      9 O           0.6292   -0.4837    2.0948 O.2     1  LIG1         -0.5
     10 O          -1.5233   -1.5872   -0.2578 O.co2   1  LIG1      -0.6300000000000008
     11 O          -3.5007   -0.6332   -0.8626 O.co2   1  LIG1      -0.6300000000000008
     12 O           3.3239    0.0994   -1.4438 O.co2   1  LIG1      -0.6300000000000008
     13 O           2.2423    1.5836   -0.1064 O.co2   1  LIG1      -0.6300000000000008
     14 H          -0.1362    1.8955    0.8006 H       1  LIG1       0.19999999999999996
     15 H           0.7347   -0.8945   -1.0677 H       1  LIG1       0.22999999999999998
@<TRIPOS>BOND
     1    12     6   ar
     2    15     4    1
     3    11     5   ar
     4     6     4    1
     5     6    13   ar
     6     5    10   ar
     7     5     2    1
     8     7     2    1
     9     4     8    1
    10     4     3    1
    11     2     1    2
    12     1    14    1
    13     1     3    1
    14     3     9    2
