@<TRIPOS>MOLECULE
PLSQMGZYOGSOCE-XINAWCOVSA-L	11085244	-1492.0214045212563
 34 35 0 0 0
SMALL
MULLIKEN NwChem

@<TRIPOS>ATOM
      1 C          -1.1430    0.6208   -1.4653 C.3     1  LIG1       -0.20999999999999996
      2 C           1.8670   -0.5723    0.3232 C.3     1  LIG1       -0.03000000000000025
      3 C          -0.6268    1.1404   -0.1283 C.2     1  LIG1       0.29000000000000004
      4 C           1.9309    0.7732   -0.4044 C.3     1  LIG1       0.040000000000000036
      5 C          -2.6712    0.6351    0.8354 C.ar    1  LIG1       0.09999999999999964
      6 C           0.7627    1.7347   -0.0813 C.3     1  LIG1       0.05999999999999961
      7 C          -2.9781   -0.2260   -0.1853 C.ar    1  LIG1       0.5199999999999996
      8 C          -3.6803    0.8310    1.9226 C.ar    1  LIG1       0.46999999999999975
      9 C          -5.1163   -0.7751    0.8973 C.ar    1  LIG1       0.5899999999999999
     10 N          -6.1902   -1.5314    0.8718 N.pl3   1  LIG1      -0.8200000000000003
     11 N          -2.0453   -0.5007   -1.1844 N.pl3   1  LIG1      -0.6399999999999997
     12 N          -1.3838    1.1810    0.9119 N.2     1  LIG1      -0.5599999999999996
     13 N          -4.1850   -0.8728   -0.2215 N.ar    1  LIG1      -0.7300000000000004
     14 N          -4.8476    0.1074    1.8676 N.ar    1  LIG1      -0.6699999999999999
     15 O           1.9441    0.5918   -1.8312 O.3     1  LIG1      -0.6999999999999993
     16 O           0.8559    2.8328   -1.0119 O.3     1  LIG1      -0.6899999999999995
     17 O          -3.4523    1.6417    2.8340 O.2     1  LIG1      -0.6699999999999999
     18 O           4.7784   -0.1689    0.8265 O.3     1  LIG1      -0.6999999999999993
     19 O           4.5087   -0.4155   -1.7375 O.3     1  LIG1      -0.7599999999999998
     20 O           5.1402   -2.5086   -0.4173 O.2     1  LIG1      -0.6899999999999995
     21 O           2.8094   -1.5260   -0.1724 O.3     1  LIG1      -0.5899999999999999
     22 P           4.4399   -1.1993   -0.2058 P.3     1  LIG1       1.1099999999999994
     23 H          -1.6642    1.4466   -1.9934 H       1  LIG1       0.16000000000000003
     24 H          -0.3183    0.2753   -2.0906 H       1  LIG1       0.18999999999999995
     25 H           0.8825   -1.0281    0.1740 H       1  LIG1       0.15000000000000002
     26 H           2.0156   -0.3997    1.3976 H       1  LIG1       0.15000000000000002
     27 H           2.8606    1.2771   -0.1101 H       1  LIG1       0.16000000000000003
     28 H           0.9010    2.1312    0.9301 H       1  LIG1       0.15000000000000002
     29 H          -6.1814   -2.0868    0.0067 H       1  LIG1          0.28
     30 H          -2.4513   -0.9047   -2.0214 H       1  LIG1          0.37
     31 H          -4.2395   -1.7192   -0.7772 H       1  LIG1          0.37
     32 H           2.8362    0.2181   -2.0197 H       1  LIG1       0.44999999999999996
     33 H           1.2803    2.4188   -1.7884 H       1  LIG1       0.43000000000000005
     34 H           4.7242   -1.1435   -2.3414 H       1  LIG1       0.43999999999999995
@<TRIPOS>BOND
     1    34    19    1
     2    24     1    1
     3    30    11    1
     4    32    15    1
     5    23     1    1
     6    15     4    1
     7    33    16    1
     8    19    22    1
     9     1    11    1
    10     1     3    1
    11    11     7    1
    12    16     6    1
    13    31    13    1
    14    20    22    2
    15     4    27    1
    16     4     6    1
    17     4     2    1
    18    13     7   ar
    19    13     9   ar
    20    22    21    1
    21    22    18    1
    22     7     5   ar
    23    21     2    1
    24     3     6    1
    25     3    12    2
    26     6    28    1
    27    29    10    1
    28    25     2    1
    29     2    26    1
    30     5    12    1
    31     5     8   ar
    32    10     9    1
    33     9    14   ar
    34    14     8   ar
    35     8    17    2
