@<TRIPOS>MOLECULE
PMCOGCVKOAOZQM-XVFCMESISA-M	6119248	-1421.0806155270805
 35 35 0 0 0
SMALL
MULLIKEN NwChem

@<TRIPOS>ATOM
      1 C           0.9616   -1.8059    2.0489 C.3     1  LIG1       -0.2400000000000002
      2 C          -1.8112    1.0574   -2.0606 C.3     1  LIG1       -0.07000000000000028
      3 C           2.6221   -3.4835    2.3827 C.2     1  LIG1       0.33000000000000007
      4 C          -2.5953    0.7136   -0.7945 C.3     1  LIG1       0.09999999999999964
      5 C           0.9129   -1.4490    0.5414 C.2     1  LIG1       0.5199999999999996
      6 C          -2.1847    1.4794    0.4687 C.3     1  LIG1       0.08000000000000007
      7 C          -1.2893    0.4795    1.2566 C.3     1  LIG1       0.07000000000000028
      8 C          -1.5209   -0.8893    0.5460 C.3     1  LIG1       0.2400000000000002
      9 N           1.9920   -1.2041   -0.1219 N.2     1  LIG1      -0.7300000000000004
     10 N           1.2979   -3.2013    2.1572 N.am    1  LIG1      -0.3099999999999996
     11 N          -0.3015   -1.4467   -0.0689 N.pl3   1  LIG1      -0.5899999999999999
     12 O           3.5459   -2.7280    2.0709 O.2     1  LIG1      -0.4299999999999997
     13 O          -3.3764    1.7683    1.2049 O.3     1  LIG1      -0.6699999999999999
     14 O          -1.6014    0.4365    2.6359 O.3     1  LIG1      -0.6600000000000001
     15 O           0.7906    2.2589   -0.5224 O.3     1  LIG1      -0.6899999999999995
     16 O           2.0184    0.6127   -2.0969 O.3     1  LIG1      -0.6899999999999995
     17 O           0.7567    2.6705   -3.0852 O.2     1  LIG1      -0.6199999999999992
     18 O          -0.4475    0.6226   -1.9397 O.3     1  LIG1      -0.5700000000000003
     19 O          -2.4722   -0.6856   -0.4762 O.3     1  LIG1      -0.5299999999999994
     20 P           0.8221    1.6299   -2.0407 P.3     1  LIG1       1.1999999999999993
     21 H          -0.0243   -1.6515    2.4984 H       1  LIG1       0.21999999999999997
     22 H           1.6869   -1.1411    2.5326 H       1  LIG1       0.19999999999999996
     23 H          -2.2375    0.5138   -2.9083 H       1  LIG1       0.18999999999999995
     24 H          -1.8639    2.1307   -2.2734 H       1  LIG1       0.18999999999999995
     25 H           2.8050   -4.4908    2.7868 H       1  LIG1       0.18999999999999995
     26 H          -3.6550    0.9047   -0.9959 H       1  LIG1       0.18999999999999995
     27 H          -1.6383    2.3971    0.2307 H       1  LIG1       0.18000000000000005
     28 H          -0.2429    0.7780    1.1821 H       1  LIG1       0.18999999999999995
     29 H          -1.9315   -1.6175    1.2534 H       1  LIG1       0.18000000000000005
     30 H           2.8346   -1.4127    0.4166 H       1  LIG1          0.35
     31 H          -0.2519   -1.1993   -1.0535 H       1  LIG1          0.37
     32 H          -3.1348    2.4000    1.9011 H       1  LIG1       0.43999999999999995
     33 H          -2.5738    0.3979    2.6850 H       1  LIG1       0.42000000000000004
     34 H           1.2265    3.1274   -0.5374 H       1  LIG1          0.47
     35 H           2.0229   -0.1215   -1.3776 H       1  LIG1           0.48
@<TRIPOS>BOND
     1    17    20    2
     2    23     2    1
     3    24     2    1
     4    16    20    1
     5    16    35    1
     6     2    18    1
     7     2     4    1
     8    20    18    1
     9    20    15    1
    10    31    11    1
    11    26     4    1
    12     4    19    1
    13     4     6    1
    14    34    15    1
    15    19     8    1
    16     9    30    1
    17     9     5    2
    18    11     5    1
    19    11     8    1
    20    27     6    1
    21     6    13    1
    22     6     7    1
    23     5     1    1
    24     8    29    1
    25     8     7    1
    26    28     7    1
    27    13    32    1
    28     7    14    1
    29     1    10    1
    30     1    21    1
    31     1    22    1
    32    12     3    2
    33    10     3   am
    34     3    25    1
    35    14    33    1
