@<TRIPOS>MOLECULE
PMFMJXPRNJUYMB-GWOFURMSSA-K	6045067	-1538.5023448938434
 36 37 0 0 0
SMALL
MULLIKEN NwChem

@<TRIPOS>ATOM
      1 C          -0.1851   -4.5726    1.2900 C.ar    1  LIG1      -0.16000000000000014
      2 C           0.7230   -3.9351    0.4364 C.ar    1  LIG1      -0.16999999999999993
      3 C          -1.3876   -3.9278    1.5757 C.ar    1  LIG1      -0.20999999999999996
      4 C           0.4074   -2.7116   -0.1421 C.ar    1  LIG1      -0.2599999999999998
      5 C           0.5447    1.8309   -2.0290 C.3     1  LIG1       -0.009999999999999787
      6 C          -1.7357   -2.6746    1.0433 C.ar    1  LIG1       0.03000000000000025
      7 C          -0.8412   -2.0782    0.1015 C.ar    1  LIG1       0.23000000000000043
      8 C          -0.5693    2.2251   -1.0493 C.3     1  LIG1       0.08999999999999986
      9 C          -0.1800    2.2804    0.4353 C.3     1  LIG1       0.11000000000000032
     10 C          -0.5143    0.8582    0.9359 C.3     1  LIG1       0.08000000000000007
     11 C          -1.5455    0.3141   -0.0969 C.3     1  LIG1       0.21999999999999975
     12 C          -3.0624   -2.1147    1.6018 C.2     1  LIG1       0.45999999999999996
     13 N          -1.1149   -0.9544   -0.6955 N.pl3   1  LIG1      -0.7000000000000002
     14 O          -1.0056    3.2365    1.1307 O.3     1  LIG1      -0.7200000000000006
     15 O          -1.0749    0.9143    2.2549 O.3     1  LIG1      -0.7400000000000002
     16 O          -3.0330   -0.9690    2.1618 O.co2   1  LIG1      -0.6300000000000008
     17 O          -4.0571   -2.8767    1.5511 O.co2   1  LIG1      -0.6500000000000004
     18 O           3.4715    1.2270   -2.4560 O.2     1  LIG1      -0.7799999999999994
     19 O           2.7648    1.0790    0.0406 O.3     1  LIG1      -0.7799999999999994
     20 O           2.9266   -1.1022   -1.4009 O.3     1  LIG1        -0.75
     21 O           1.0266    0.5432   -1.8225 O.3     1  LIG1      -0.6500000000000004
     22 O          -1.6751    1.2978   -1.1217 O.3     1  LIG1      -0.5500000000000007
     23 P           2.7749    0.4240   -1.3501 P.3     1  LIG1       0.9800000000000004
     24 H           0.0454   -5.5405    1.7415 H       1  LIG1          0.14
     25 H           1.7011   -4.3720    0.2331 H       1  LIG1          0.14
     26 H          -2.1163   -4.3944    2.2366 H       1  LIG1          0.13
     27 H           1.1601   -2.1890   -0.7466 H       1  LIG1       0.18000000000000005
     28 H           0.1020    1.9191   -3.0470 H       1  LIG1       0.09999999999999998
     29 H           1.3558    2.5744   -1.9718 H       1  LIG1          0.12
     30 H          -0.9697    3.2093   -1.3461 H       1  LIG1          0.13
     31 H           0.8864    2.4968    0.5622 H       1  LIG1          0.13
     32 H           0.4072    0.2680    0.9172 H       1  LIG1          0.14
     33 H          -2.5223    0.1838    0.3654 H       1  LIG1       0.15000000000000002
     34 H          -0.2851   -0.7054   -1.2552 H       1  LIG1          0.36
     35 H          -1.3816    2.6773    1.8452 H       1  LIG1       0.42000000000000004
     36 H          -1.7383    0.1685    2.3020 H       1  LIG1       0.43000000000000005
@<TRIPOS>BOND
     1    28     5    1
     2    18    23    2
     3     5    29    1
     4     5    21    1
     5     5     8    1
     6    21    23    1
     7    20    23    1
     8    23    19    1
     9    30     8    1
    10    34    13    1
    11    22     8    1
    12    22    11    1
    13     8     9    1
    14    27     4    1
    15    13    11    1
    16    13     7    1
    17     4     7   ar
    18     4     2   ar
    19    11    33    1
    20    11    10    1
    21     7     6   ar
    22    25     2    1
    23     9    31    1
    24     9    10    1
    25     9    14    1
    26     2     1   ar
    27    32    10    1
    28    10    15    1
    29     6     3   ar
    30     6    12    1
    31    14    35    1
    32     1     3   ar
    33     1    24    1
    34    17    12   ar
    35     3    26    1
    36    12    16   ar
    37    15    36    1
