@<TRIPOS>MOLECULE
PMMYEEVYMWASQN-DMTCNVIQSA-N	6045068	-476.2619290345012
 18 18 0 0 0
SMALL
MULLIKEN NwChem

@<TRIPOS>ATOM
      1 CB         -0.2325   -1.2422   -0.3993 C.3     1  HYP1       -0.2999999999999998
      2 CD          1.5517    0.3363   -0.2505 C.3     1  HYP1       -0.17999999999999972
      3 CG          1.2330   -1.0588   -0.8134 C.3     1  HYP1       0.1200000000000001
      4 CA         -0.7812    0.2130   -0.2826 C.3     1  HYP1       -0.07000000000000028
      5 C          -1.2560    0.5283    1.1305 C.2     1  HYP1       0.5999999999999996
      6 N           0.3538    1.1416   -0.5413 N.3     1  HYP1      -0.5800000000000001
      7 OD          1.2606   -1.0431   -2.2467 O.3     1  HYP1      -0.6799999999999997
      8 OXT        -0.7316    0.1244    2.1472 O.2     1  HYP1      -0.5099999999999998
      9 O          -2.3173    1.3663    1.1360 O.3     1  HYP1      -0.5800000000000001
     10 HB1        -0.7696   -1.8321   -1.1457 H       1  HYP1       0.17000000000000004
     11 HB2        -0.2896   -1.7511    0.5661 H       1  HYP1       0.17000000000000004
     12 HD1         1.6925    0.2832    0.8353 H       1  HYP1       0.15000000000000002
     13 HD2         2.4422    0.7954   -0.6942 H       1  HYP1       0.17000000000000004
     14 HG          1.8850   -1.8505   -0.4169 H       1  HYP1          0.14
     15 HA         -1.5919    0.4243   -0.9822 H       1  HYP1       0.18000000000000005
     16 H           0.3542    1.3312   -1.5425 H       1  HYP1       0.32999999999999996
     17 HD          2.1804   -0.9036   -2.5222 H       1  HYP1       0.43000000000000005
     18 H          -2.5045    1.5655    2.0731 H       1  HYP1       0.43999999999999995
@<TRIPOS>BOND
     1    17     7    1
     2     7     3    1
     3    16     6    1
     4    10     1    1
     5    15     4    1
     6     3    14    1
     7     3     1    1
     8     3     2    1
     9    13     2    1
    10     6     4    1
    11     6     2    1
    12     1     4    1
    13     1    11    1
    14     4     5    1
    15     2    12    1
    16     5     9    1
    17     5     8    2
    18     9    18    1
