@<TRIPOS>MOLECULE
PMOWTIHVNWZYFI-WAYWQWQTSA-M	6045069	-572.8775117396244
 19 19 0 0 0
SMALL
MULLIKEN NwChem

@<TRIPOS>ATOM
      1 C          -3.1195   -0.5897    0.4923 C.ar    1  LIG1      -0.1900000000000004
      2 C          -2.6826   -1.9008    0.2298 C.ar    1  LIG1      -0.15000000000000036
      3 C          -2.2207    0.4518    0.3068 C.ar    1  LIG1      -0.21999999999999975
      4 C          -1.3885   -2.1364   -0.1954 C.ar    1  LIG1      -0.21999999999999975
      5 C          -0.0906    1.4693   -0.3115 C.2     1  LIG1      -0.20000000000000018
      6 C           1.2197    1.8257   -0.2964 C.2     1  LIG1         -0.25
      7 C          -0.8795    0.2573   -0.0930 C.ar    1  LIG1       0.07000000000000028
      8 C          -0.4262   -1.0880   -0.3763 C.ar    1  LIG1       0.33000000000000007
      9 C           2.4804    1.1752    0.1767 C.2     1  LIG1       0.5499999999999998
     10 O           0.7512   -1.3706   -0.8116 O.3     1  LIG1        -0.75
     11 O           3.4348    1.9070    0.4426 O.2     1  LIG1      -0.5899999999999999
     12 O           2.5387   -0.1312    0.3483 O.3     1  LIG1      -0.6600000000000001
     13 H          -4.1388   -0.3930    0.8172 H       1  LIG1          0.13
     14 H          -3.3703   -2.7376    0.3562 H       1  LIG1          0.14
     15 H          -2.5546    1.4749    0.4851 H       1  LIG1          0.14
     16 H          -1.0402   -3.1433   -0.4134 H       1  LIG1       0.10999999999999999
     17 H          -0.7426    2.3217   -0.5264 H       1  LIG1       0.16000000000000003
     18 H           1.4210    2.8728   -0.5147 H       1  LIG1          0.13
     19 H           1.7577   -0.6286   -0.1567 H       1  LIG1       0.44999999999999996
@<TRIPOS>BOND
     1    10     8    1
     2    17     5    1
     3    18     6    1
     4    16     4    1
     5     8     4   ar
     6     8     7   ar
     7     5     6    2
     8     5     7    1
     9     6     9    1
    10     4     2   ar
    11    19    12    1
    12     7     3   ar
    13     9    12    1
    14     9    11    2
    15     2    14    1
    16     2     1   ar
    17     3    15    1
    18     3     1   ar
    19     1    13    1
