@<TRIPOS>MOLECULE
PMWATMXOQQZNBX-DKBZLLMOSA-J	11085243	-4098.221762623454
 92 94 0 0 0
SMALL
MULLIKEN NwChem

@<TRIPOS>ATOM
      1 C          14.2903    2.6146    2.9700 C.3     1  LIG1      -0.5099999999999998
      2 C          11.5815    1.0601    2.6857 C.3     1  LIG1      -0.5499999999999998
      3 C           3.2667   -1.1794    0.8886 C.3     1  LIG1      -0.4800000000000004
      4 C           3.2810   -1.6531   -1.5946 C.3     1  LIG1      -0.46999999999999975
      5 C          13.6656    2.1171    1.6991 C.2     1  LIG1      -0.16000000000000014
      6 C           8.3574    1.4379   -0.3077 C.3     1  LIG1       -0.3600000000000003
      7 C           7.4503    0.8147    0.7995 C.3     1  LIG1       -0.13999999999999968
      8 C          10.4741   -0.5193   -0.8575 C.3     1  LIG1       -0.1299999999999999
      9 C          11.6266   -1.5341   -0.8353 C.3     1  LIG1       -0.3799999999999999
     10 C          -4.7249    0.1273   -0.0554 C.3     1  LIG1       -0.08000000000000007
     11 C           1.6252   -0.0261   -0.6248 C.3     1  LIG1       -0.040000000000000036
     12 C          -9.8079    3.3090    1.4880 C.ar    1  LIG1       0.15000000000000036
     13 C          -9.7318   -0.7933    2.8950 C.ar    1  LIG1       0.21999999999999975
     14 C          12.5084    1.4450    1.5616 C.2     1  LIG1       0.15000000000000036
     15 C          -5.9972   -0.6975    0.1148 C.3     1  LIG1       0.11000000000000032
     16 C           9.7938    1.6922    0.1156 C.2     1  LIG1       0.5800000000000001
     17 C         -10.4405    1.1948    2.9675 C.ar    1  LIG1       0.1900000000000004
     18 C          -8.3819   -0.6949   -0.4753 C.3     1  LIG1       0.11000000000000032
     19 C          -6.9382   -0.6854   -1.1038 C.3     1  LIG1       0.09999999999999964
     20 C           4.0379    0.6183   -0.7240 C.3     1  LIG1       0.08000000000000007
     21 C         -11.0938    2.4196    3.1724 C.ar    1  LIG1       0.4500000000000002
     22 C          -9.4666    1.1691    1.9521 C.ar    1  LIG1       0.5300000000000002
     23 C           5.5469    0.2684   -0.4763 C.2     1  LIG1       0.5300000000000002
     24 C          -8.0463   -0.7665    1.0297 C.3     1  LIG1       0.2599999999999998
     25 C          12.1229    1.0767    0.1552 C.2     1  LIG1       0.5300000000000002
     26 C           3.0591   -0.5824   -0.5121 C.3     1  LIG1       0.07000000000000028
     27 N         -12.0535    2.5683    4.1587 N.pl3   1  LIG1      -0.7800000000000002
     28 N          10.7472    0.7125   -0.0821 N.am    1  LIG1      -0.4800000000000004
     29 N           6.0456    0.9976    0.5129 N.am    1  LIG1      -0.6200000000000001
     30 N         -10.7742    3.4795    2.4186 N.ar    1  LIG1        -0.54
     31 N          -9.1139    2.2140    1.1895 N.ar    1  LIG1        -0.54
     32 N         -10.5999   -0.0501    3.5500 N.ar    1  LIG1      -0.5700000000000003
     33 N          -9.0164   -0.1341    1.9249 N.ar    1  LIG1      -0.5199999999999996
     34 O          10.1059    2.7752    0.6324 O.2     1  LIG1      -0.5999999999999996
     35 O          -9.2137   -1.7744   -0.8091 O.3     1  LIG1      -0.7300000000000004
     36 O           3.6638    1.7105    0.1072 O.3     1  LIG1      -0.7200000000000006
     37 O           6.1185   -0.5898   -1.2024 O.2     1  LIG1      -0.6899999999999995
     38 O          12.8949    1.1525   -0.7925 O.2     1  LIG1      -0.5299999999999994
     39 O          -8.5468   -2.6572   -3.3756 O.3     1  LIG1      -0.6999999999999993
     40 O          -7.2444   -0.4781   -4.0187 O.2     1  LIG1      -0.6899999999999995
     41 O          -6.0604   -2.8226   -4.0431 O.3     1  LIG1      -0.7300000000000004
     42 O          -3.5222   -2.0331   -2.9552 O.2     1  LIG1      -0.6400000000000006
     43 O          -3.4976   -2.4886   -0.3350 O.3     1  LIG1      -0.7300000000000004
     44 O          -1.1171   -2.3149    0.6795 O.3     1  LIG1      -0.7100000000000009
     45 O          -1.1012    0.3198    0.7048 O.2     1  LIG1      -0.6300000000000008
     46 O          -4.1175   -0.1777   -1.3086 O.3     1  LIG1      -0.5700000000000003
     47 O           0.6733   -1.1255   -0.5557 O.3     1  LIG1      -0.5399999999999991
     48 O          -6.7862   -0.1782    1.2200 O.3     1  LIG1      -0.5399999999999991
     49 O          -6.6722   -1.8254   -1.8656 O.3     1  LIG1      -0.6199999999999992
     50 O          -1.7015   -1.0471   -1.4466 O.3     1  LIG1      -0.6400000000000006
     51 P          -7.2439   -1.8722   -3.4552 P.3     1  LIG1       1.0600000000000005
     52 P          -3.3025   -1.5876   -1.5452 P.3     1  LIG1       1.2400000000000002
     53 P          -0.8427   -0.9255   -0.0664 P.3     1  LIG1       1.1799999999999997
     54 S          12.2540   -1.9696    0.8361 S.3     1  LIG1      -0.7800000000000011
     55 H          13.6798    2.4032    3.8528 H       1  LIG1       0.17000000000000004
     56 H          14.4517    3.7039    2.9327 H       1  LIG1       0.17000000000000004
     57 H          15.2820    2.1618    3.1340 H       1  LIG1       0.17000000000000004
     58 H          12.0944    1.0639    3.6545 H       1  LIG1       0.16000000000000003
     59 H          10.7366    1.7551    2.7313 H       1  LIG1       0.16000000000000003
     60 H          11.2075    0.0488    2.5003 H       1  LIG1       0.17000000000000004
     61 H           4.2411   -1.6764    0.9479 H       1  LIG1       0.15000000000000002
     62 H           3.2459   -0.3789    1.6359 H       1  LIG1          0.14
     63 H           2.4792   -1.9061    1.1191 H       1  LIG1       0.15000000000000002
     64 H           2.6028   -2.4993   -1.4384 H       1  LIG1          0.14
     65 H           4.3224   -1.9810   -1.5795 H       1  LIG1       0.16000000000000003
     66 H           3.0747   -1.2400   -2.5923 H       1  LIG1          0.14
     67 H          14.2237    2.3152    0.7856 H       1  LIG1          0.14
     68 H           8.2584    0.8100   -1.1961 H       1  LIG1       0.17000000000000004
     69 H           7.9470    2.4270   -0.5327 H       1  LIG1       0.15000000000000002
     70 H           7.7182   -0.2512    0.8989 H       1  LIG1          0.12
     71 H           7.6896    1.3081    1.7529 H       1  LIG1          0.13
     72 H          10.2399   -0.2538   -1.9009 H       1  LIG1       0.16000000000000003
     73 H           9.5811   -0.9747   -0.4216 H       1  LIG1       0.17000000000000004
     74 H          12.4457   -1.1392   -1.4498 H       1  LIG1       0.15000000000000002
     75 H          11.2390   -2.4245   -1.3549 H       1  LIG1       0.15000000000000002
     76 H          -4.9883    1.1907   -0.0944 H       1  LIG1       0.18000000000000005
     77 H          -4.0296   -0.0309    0.7763 H       1  LIG1       0.17000000000000004
     78 H           1.4893    0.4740   -1.5929 H       1  LIG1       0.16000000000000003
     79 H           1.4172    0.6884    0.1727 H       1  LIG1       0.17000000000000004
     80 H          -9.5731    4.1940    0.8991 H       1  LIG1       0.17000000000000004
     81 H          -9.5643   -1.8491    3.0645 H       1  LIG1       0.21999999999999997
     82 H          -5.7259   -1.7401    0.3200 H       1  LIG1       0.17000000000000004
     83 H          -8.8689    0.2697   -0.6866 H       1  LIG1       0.15000000000000002
     84 H          -6.8022    0.2187   -1.7058 H       1  LIG1       0.16000000000000003
     85 H           3.9555    0.9195   -1.7854 H       1  LIG1       0.10999999999999999
     86 H          -8.0441   -1.8345    1.3030 H       1  LIG1       0.18000000000000005
     87 H         -12.4895    1.6989    4.4405 H       1  LIG1          0.37
     88 H         -12.6971    3.3299    3.9846 H       1  LIG1          0.37
     89 H          -8.9816   -2.1180   -1.7224 H       1  LIG1       0.43999999999999995
     90 H           4.5150    1.8355    0.6161 H       1  LIG1          0.38
     91 H          -5.1870   -2.5041   -3.6970 H       1  LIG1          0.47
     92 H          -2.0642   -2.5817    0.4297 H       1  LIG1           0.48
@<TRIPOS>BOND
     1    41    91    1
     2    41    51    1
     3    40    51    2
     4    51    39    1
     5    51    49    1
     6    42    52    2
     7    66     4    1
     8    72     8    1
     9    49    19    1
    10    85    20    1
    11    89    35    1
    12    84    19    1
    13     4    65    1
    14     4    64    1
    15     4    26    1
    16    78    11    1
    17    52    50    1
    18    52    46    1
    19    52    43    1
    20    74     9    1
    21    50    53    1
    22    75     9    1
    23    46    10    1
    24    37    23    2
    25    68     6    1
    26    19    18    1
    27    19    15    1
    28     8     9    1
    29     8    73    1
    30     8    28    1
    31     9    54    1
    32    35    18    1
    33    38    25    2
    34    20    26    1
    35    20    23    1
    36    20    36    1
    37    83    18    1
    38    11    47    1
    39    11    26    1
    40    11    79    1
    41    47    53    1
    42    69     6    1
    43    26     3    1
    44    23    29   am
    45    18    24    1
    46     6    16    1
    47     6     7    1
    48    76    10    1
    49    28    16   am
    50    28    25   am
    51    53    44    1
    52    53    45    2
    53    10    15    1
    54    10    77    1
    55    36    90    1
    56    15    82    1
    57    15    48    1
    58    16    34    2
    59    25    14    1
    60    92    44    1
    61    29     7    1
    62    67     5    1
    63     7    70    1
    64     7    71    1
    65     3    61    1
    66     3    63    1
    67     3    62    1
    68    80    12    1
    69    24    48    1
    70    24    86    1
    71    24    33    1
    72    31    12   ar
    73    31    22   ar
    74    12    30   ar
    75    14     5    2
    76    14     2    1
    77     5     1    1
    78    33    22   ar
    79    33    13   ar
    80    22    17   ar
    81    30    21   ar
    82    60     2    1
    83     2    59    1
    84     2    58    1
    85    13    81    1
    86    13    32   ar
    87    56     1    1
    88    17    21   ar
    89    17    32   ar
    90     1    57    1
    91     1    55    1
    92    21    27    1
    93    88    27    1
    94    27    87    1
