@<TRIPOS>MOLECULE
POIIJAAGMGNXLO-VXGBXAGGSA-N	6045071	-1595.834420880004
 31 33 0 0 0
SMALL
MULLIKEN NwChem

@<TRIPOS>ATOM
      1 C           3.8028    1.3872    2.7153 C.ar    1  LIG1      -0.15000000000000036
      2 C           2.5014    1.0314    3.0822 C.ar    1  LIG1      -0.15000000000000036
      3 C           4.0394    1.9284    1.4527 C.ar    1  LIG1      -0.13999999999999968
      4 C           1.4424    1.2105    2.1941 C.ar    1  LIG1      -0.17999999999999972
      5 C           2.9780    2.1092    0.5608 C.ar    1  LIG1      -0.20999999999999996
      6 C           0.5344    1.9367   -0.0760 C.3     1  LIG1       -0.3799999999999999
      7 C          -2.0839   -3.0616   -0.6427 C.3     1  LIG1       -0.03000000000000025
      8 C           1.6686    1.7507    0.9181 C.ar    1  LIG1      0.07000000000000028
      9 C           0.5087   -0.5850   -0.7875 C.3     1  LIG1          0.54
     10 C          -1.7998   -0.7693    0.5131 C.3     1  LIG1       0.5700000000000003
     11 C          -0.2666    0.6573   -0.3664 C.3     1  LIG1       -0.07000000000000028
     12 C          -1.5104   -1.6395   -0.6800 C.3     1  LIG1       -0.09999999999999964
     13 N          -1.1962    0.3545    0.6798 N.3     1  LIG1      -0.4299999999999997
     14 N          -0.1059   -1.7009   -0.9446 N.3     1  LIG1      -0.4400000000000004
     15 O          -1.3755   -3.8249    0.3114 O.3     1  LIG1      -0.6500000000000004
     16 O           1.8182   -0.5312   -1.0662 O.3     1  LIG1      -0.6099999999999994
     17 O          -2.7455   -1.1881    1.3598 O.3     1  LIG1      -0.5999999999999996
     18 S          -1.2359    1.0614   -2.0256 S.3     1  LIG1      0.009999999999999787
     19 S          -2.4456   -0.6564   -2.0785 S.3     1  LIG1      0.009999999999999787
     20 H           4.6248    1.2428    3.4106 H       1  LIG1       0.16000000000000003
     21 H           2.3110    0.6109    4.0658 H       1  LIG1       0.16000000000000003
     22 H           5.0454    2.2132    1.1578 H       1  LIG1       0.16000000000000003
     23 H           0.4335    0.9286    2.4761 H       1  LIG1       0.17000000000000004
     24 H           3.1668    2.5463   -0.4182 H       1  LIG1       0.17000000000000004
     25 H          -0.1883    2.6696    0.2958 H       1  LIG1       0.19999999999999996
     26 H           0.9430    2.3313   -1.0132 H       1  LIG1       0.19999999999999996
     27 H          -3.1317   -3.0475   -0.3370 H       1  LIG1       0.18999999999999995
     28 H          -2.0068   -3.4857   -1.6542 H       1  LIG1       0.17000000000000004
     29 H          -0.4411   -3.7753    0.0417 H       1  LIG1       0.43000000000000005
     30 H           2.2306    0.2279   -0.6147 H       1  LIG1       0.45999999999999996
     31 H          -2.8760   -0.4759    2.0139 H       1  LIG1       0.45999999999999996
@<TRIPOS>BOND
     1    19    18    1
     2    19    12    1
     3    18    11    1
     4    28     7    1
     5    16     9    1
     6    16    30    1
     7    26     6    1
     8    14     9    1
     9    14    12    1
    10     9    11    1
    11    12     7    1
    12    12    10    1
    13     7    27    1
    14     7    15    1
    15    24     5    1
    16    11     6    1
    17    11    13    1
    18     6    25    1
    19     6     8    1
    20    29    15    1
    21    10    13    1
    22    10    17    1
    23     5     8   ar
    24     5     3   ar
    25     8     4   ar
    26    22     3    1
    27    17    31    1
    28     3     1   ar
    29     4    23    1
    30     4     2   ar
    31     1     2   ar
    32     1    20    1
    33     2    21    1
