@<TRIPOS>MOLECULE
POJWUDADGALRAB-SFOWXEAESA-N	6045072	-600.6185284347532
 17 17 0 0 0
SMALL
MULLIKEN NwChem

@<TRIPOS>ATOM
      1 C          -0.0147    0.0461    0.3530 C.3     1  LIG1       0.04999999999999982
      2 C           1.0892   -1.0131    0.3656 C.2     1  LIG1       0.5599999999999996
      3 C          -0.1441    2.3675   -0.5375 C.2     1  LIG1       0.6600000000000001
      4 C          -0.7881   -1.9744    0.2733 C.2     1  LIG1       0.6500000000000004
      5 N          -0.4130    3.2425   -1.4268 N.2     1  LIG1      -0.7400000000000002
      6 N           0.1463    1.0209   -0.7031 N.pl3   1  LIG1      -0.5999999999999996
      7 N          -1.2275   -0.7670    0.2516 N.2     1  LIG1      -0.5199999999999996
      8 N           0.6201   -2.2131    0.3416 N.2     1  LIG1        -0.54
      9 O           2.3698   -0.6774    0.4269 O.2     1  LIG1      -0.5999999999999996
     10 O          -0.0508    2.7409    0.7637 O.2     1  LIG1      -0.6099999999999994
     11 O          -1.5777   -3.0509    0.2328 O.2     1  LIG1      -0.6199999999999992
     12 H           0.0061    0.5816    1.3073 H       1  LIG1       0.22999999999999998
     13 H          -0.4727    2.8420   -2.3625 H       1  LIG1       0.31999999999999995
     14 H          -0.1003    0.6638   -1.6178 H       1  LIG1          0.37
     15 H           2.8969   -1.4980    0.4598 H       1  LIG1          0.47
     16 H          -0.2576    3.6919    0.7639 H       1  LIG1       0.44999999999999996
     17 H          -0.9968   -3.8301    0.2519 H       1  LIG1       0.45999999999999996
@<TRIPOS>BOND
     1    13     5    1
     2    14     6    1
     3     5     3    2
     4     6     3    1
     5     6     1    1
     6     3    10    1
     7    11    17    1
     8    11     4    1
     9     7     4    2
    10     7     1    1
    11     4     8    1
    12     8     2    2
    13     1     2    1
    14     1    12    1
    15     2     9    1
    16     9    15    1
    17    10    16    1
