@<TRIPOS>MOLECULE
POODSGUMUCVRTR-IEXPHMLFSA-J	11168970	-4019.6120683680297
 86 88 0 0 0
SMALL
MULLIKEN NwChem

@<TRIPOS>ATOM
      1 C          15.7098    1.0627    1.5168 C.2     1  LIG1      -0.3200000000000003
      2 C           3.1730   -1.1388   -1.9733 C.3     1  LIG1      -0.46999999999999975
      3 C           2.1740   -2.8046   -0.3696 C.3     1  LIG1      -0.4800000000000004
      4 C          14.7103    1.7221    0.9170 C.2     1  LIG1      -0.1299999999999999
      5 C           8.2946    0.5682   -0.5297 C.3     1  LIG1       -0.3200000000000003
      6 C           6.8948    1.0471   -0.0998 C.3     1  LIG1       -0.11000000000000032
      7 C          11.0241    2.8416   -1.6771 C.3     1  LIG1       -0.1200000000000001
      8 C          12.2278    2.3723   -0.8275 C.3     1  LIG1       -0.4400000000000004
      9 C          -4.3437   -1.2965    1.1252 C.3     1  LIG1       -0.08000000000000007
     10 C           1.5843   -0.3768   -0.1629 C.3     1  LIG1       -0.07000000000000028
     11 C         -10.9143    2.6673    1.8071 C.ar    1  LIG1       0.16000000000000014
     12 C          -7.0614    1.5541    0.1023 C.ar    1  LIG1       0.20000000000000018
     13 C          -5.7774   -1.6380    1.4874 C.3     1  LIG1       0.1299999999999999
     14 C           9.3759    1.6591   -0.5436 C.2     1  LIG1           0.5
     15 C          14.9965    2.8985    0.0423 C.2     1  LIG1          0.25
     16 C          -8.7154    2.8739    0.3276 C.ar    1  LIG1       0.1900000000000004
     17 C          -8.0700   -1.5450    0.7773 C.3     1  LIG1       0.09999999999999964
     18 C          -6.6741   -1.9996    0.2972 C.3     1  LIG1       0.07000000000000028
     19 C           3.9128   -1.1669    0.4515 C.3     1  LIG1       0.08000000000000007
     20 C          -9.6973    3.8718    0.2740 C.ar    1  LIG1       0.4400000000000004
     21 C          -8.9761    1.7888    1.1810 C.ar    1  LIG1          0.54
     22 C           4.7105    0.1657    0.2343 C.2     1  LIG1       0.5199999999999996
     23 C          -7.7393   -0.3602    1.6963 C.3     1  LIG1       0.2400000000000002
     24 C           2.7043   -1.3665   -0.5278 C.3     1  LIG1       0.08000000000000007
     25 N          -9.5327    4.9944   -0.5149 N.pl3   1  LIG1      -0.7800000000000002
     26 N          10.0286    1.7974   -1.7102 N.am    1  LIG1      -0.6299999999999999
     27 N           5.9989   -0.0817    0.0776 N.am    1  LIG1      -0.6299999999999999
     28 N         -10.8118    3.7573    1.0187 N.ar    1  LIG1        -0.54
     29 N         -10.0677    1.6481    1.9545 N.ar    1  LIG1        -0.54
     30 N          -7.5190    2.7121   -0.3366 N.ar    1  LIG1      -0.5800000000000001
     31 N          -7.9005    0.9492    1.0280 N.ar    1  LIG1      -0.5199999999999996
     32 O           9.5884    2.3099    0.5243 O.2     1  LIG1      -0.7100000000000009
     33 O          16.1218    3.3879   -0.0417 O.2     1  LIG1      -0.5199999999999996
     34 O          -8.6447   -2.5758    1.5665 O.3     1  LIG1      -0.6999999999999993
     35 O           4.8081   -2.2673    0.3510 O.3     1  LIG1      -0.7300000000000004
     36 O           4.0829    1.2617    0.2471 O.2     1  LIG1      -0.6999999999999993
     37 O          -5.5777   -3.9700   -2.1754 O.3     1  LIG1      -0.7400000000000002
     38 O          -7.5565   -5.3371   -1.3146 O.3     1  LIG1      -0.6799999999999997
     39 O          -7.9236   -2.8334   -2.0867 O.2     1  LIG1      -0.7100000000000009
     40 O          -3.8054   -1.7597   -1.7378 O.3     1  LIG1      -0.7400000000000002
     41 O          -4.2109    0.8486   -2.0599 O.2     1  LIG1      -0.6300000000000008
     42 O          -1.2541   -2.4135   -1.4627 O.3     1  LIG1      -0.7100000000000009
     43 O          -1.0392   -1.4536    0.9783 O.2     1  LIG1      -0.6300000000000008
     44 O          -4.3257   -0.1860    0.2289 O.3     1  LIG1      -0.5800000000000001
     45 O           0.4050   -0.5778   -1.0183 O.3     1  LIG1      -0.5399999999999991
     46 O          -6.4086   -0.5004    2.1298 O.3     1  LIG1      -0.5399999999999991
     47 O          -6.6426   -3.3909    0.0814 O.3     1  LIG1      -0.6500000000000004
     48 O          -2.0519   -0.0543   -0.9866 O.3     1  LIG1      -0.6400000000000006
     49 P          -7.0706   -3.9324   -1.5072 P.3     1  LIG1       1.0700000000000003
     50 P          -3.6858   -0.3061   -1.2848 P.3     1  LIG1       1.2400000000000002
     51 P          -0.9759   -1.1734   -0.4820 P.3     1  LIG1       1.2100000000000009
     52 S          13.6442    3.5995   -0.8864 S.3     1  LIG1      0.05000000000000071
     53 H          16.7394    1.3759    1.3626 H       1  LIG1       0.18000000000000005
     54 H          15.5248    0.2089    2.1636 H       1  LIG1       0.18999999999999995
     55 H           2.3697   -1.3623   -2.6854 H       1  LIG1          0.14
     56 H           4.0332   -1.7856   -2.1800 H       1  LIG1          0.14
     57 H           3.4867   -0.0983   -2.1084 H       1  LIG1       0.15000000000000002
     58 H           2.9832   -3.5172   -0.5500 H       1  LIG1       0.15000000000000002
     59 H           1.7911   -2.9683    0.6464 H       1  LIG1          0.14
     60 H           1.3546   -2.9997   -1.0695 H       1  LIG1       0.15000000000000002
     61 H          13.6770    1.4211    1.0522 H       1  LIG1       0.18000000000000005
     62 H           8.6066   -0.2014    0.1940 H       1  LIG1          0.12
     63 H           8.2391    0.0857   -1.5124 H       1  LIG1       0.09999999999999998
     64 H           6.5008    1.7627   -0.8440 H       1  LIG1       0.09999999999999998
     65 H           7.0083    1.6284    0.8312 H       1  LIG1       0.09999999999999998
     66 H          11.3672    3.0643   -2.7014 H       1  LIG1       0.10999999999999999
     67 H          10.6627    3.7836   -1.2217 H       1  LIG1       0.09999999999999998
     68 H          11.8554    2.2811    0.1958 H       1  LIG1       0.20999999999999996
     69 H          12.5975    1.4139   -1.2020 H       1  LIG1       0.18000000000000005
     70 H          -3.7632   -1.0265    2.0128 H       1  LIG1       0.18000000000000005
     71 H          -3.8894   -2.1833    0.6732 H       1  LIG1       0.18000000000000005
     72 H           1.9176    0.6485   -0.3188 H       1  LIG1       0.18000000000000005
     73 H           1.2790   -0.5042    0.8802 H       1  LIG1       0.16000000000000003
     74 H         -11.8267    2.6144    2.4018 H       1  LIG1       0.17000000000000004
     75 H          -6.1236    1.0988   -0.1970 H       1  LIG1       0.22999999999999998
     76 H          -5.7779   -2.4820    2.1914 H       1  LIG1       0.17000000000000004
     77 H          -8.7197   -1.2713   -0.0605 H       1  LIG1       0.16000000000000003
     78 H          -6.3853   -1.4386   -0.5947 H       1  LIG1       0.18000000000000005
     79 H           3.4921   -1.1284    1.4760 H       1  LIG1       0.10999999999999999
     80 H          -8.4268   -0.3333    2.5479 H       1  LIG1       0.18999999999999995
     81 H         -10.3996    5.4315   -0.7995 H       1  LIG1          0.37
     82 H          -8.8482    4.8760   -1.2527 H       1  LIG1          0.37
     83 H          -8.2257   -3.3836    1.1946 H       1  LIG1       0.43999999999999995
     84 H           5.6611   -1.7574    0.1927 H       1  LIG1          0.38
     85 H          -5.1042   -3.1119   -2.0821 H       1  LIG1       0.45999999999999996
     86 H          -2.2337   -2.4053   -1.6890 H       1  LIG1           0.48
@<TRIPOS>BOND
     1    66     7    1
     2    55     2    1
     3    56     2    1
     4    37    85    1
     5    37    49    1
     6    57     2    1
     7    39    49    2
     8    41    50    2
     9     2    24    1
    10    40    50    1
    11    26     7    1
    12    26    14   am
    13    86    42    1
    14     7    67    1
    15     7     8    1
    16    63     5    1
    17    49    38    1
    18    49    47    1
    19    42    51    1
    20    50    48    1
    21    50    44    1
    22    82    25    1
    23    69     8    1
    24    60     3    1
    25    45    51    1
    26    45    10    1
    27    48    51    1
    28    52     8    1
    29    52    15    1
    30    64     6    1
    31     8    68    1
    32    81    25    1
    33    78    18    1
    34    58     3    1
    35    14     5    1
    36    14    32    2
    37     5     6    1
    38     5    62    1
    39    24     3    1
    40    24    10    1
    41    24    19    1
    42    25    20    1
    43    51    43    2
    44     3    59    1
    45    30    12   ar
    46    30    16   ar
    47    72    10    1
    48    75    12    1
    49    10    73    1
    50     6    27    1
    51     6    65    1
    52    77    17    1
    53    33    15    2
    54    15     4    1
    55    27    22   am
    56    47    18    1
    57    12    31   ar
    58    84    35    1
    59    44     9    1
    60    22    36    2
    61    22    19    1
    62    20    16   ar
    63    20    28   ar
    64    18    17    1
    65    18    13    1
    66    16    21   ar
    67    35    19    1
    68    19    79    1
    69    71     9    1
    70    17    34    1
    71    17    23    1
    72     4    61    1
    73     4     1    2
    74    28    11   ar
    75    31    21   ar
    76    31    23    1
    77     9    13    1
    78     9    70    1
    79    21    29   ar
    80    83    34    1
    81    53     1    1
    82    13    46    1
    83    13    76    1
    84     1    54    1
    85    23    46    1
    86    23    80    1
    87    11    29   ar
    88    11    74    1
