@<TRIPOS>MOLECULE
POULHZVOKOAJMA-UHFFFAOYSA-M	6045075	-621.4648664979642
 37 36 0 0 0
SMALL
MULLIKEN NwChem

@<TRIPOS>ATOM
      1 C           2.5270    5.1888   -0.5894 C.3     1  LIG1      -0.45999999999999996
      2 C           2.4531    3.9428   -1.4798 C.3     1  LIG1      -0.2599999999999998
      3 C           2.8207    2.6361   -0.7571 C.3     1  LIG1      -0.2599999999999998
      4 C           1.9391    2.2843    0.4549 C.3     1  LIG1      -0.2699999999999996
      5 C           0.4315    2.1963    0.1611 C.3     1  LIG1      -0.2699999999999996
      6 C           0.0393    1.1972   -0.9414 C.3     1  LIG1      -0.2699999999999996
      7 C           0.5009   -0.2521   -0.7031 C.3     1  LIG1      -0.2699999999999996
      8 C           0.0303   -0.8811    0.6192 C.3     1  LIG1      -0.2699999999999996
      9 C          -1.4945   -0.8964    0.8266 C.3     1  LIG1      -0.2699999999999996
     10 C          -2.2909   -1.6312   -0.2691 C.3     1  LIG1        -0.25
     11 C          -1.7594   -3.0430   -0.5679 C.3     1  LIG1       -0.33999999999999986
     12 C          -1.5884   -3.8691    0.7585 C.2     1  LIG1       0.5300000000000002
     13 O          -2.6389   -3.9808    1.4419 O.co2   1  LIG1      -0.6799999999999997
     14 O          -0.4239   -4.2801    1.0032 O.co2   1  LIG1      -0.6799999999999997
     15 H           1.7969    5.1418    0.2263 H       1  LIG1       0.15000000000000002
     16 H           2.3249    6.1018   -1.1627 H       1  LIG1          0.14
     17 H           3.5220    5.2906   -0.1365 H       1  LIG1          0.14
     18 H           1.4430    3.8576   -1.9011 H       1  LIG1          0.14
     19 H           3.1287    4.0727   -2.3371 H       1  LIG1          0.13
     20 H           2.7807    1.8119   -1.4808 H       1  LIG1          0.14
     21 H           3.8678    2.6988   -0.4245 H       1  LIG1          0.13
     22 H           2.2816    1.3251    0.8626 H       1  LIG1          0.14
     23 H           2.1021    3.0231    1.2523 H       1  LIG1          0.13
     24 H          -0.0847    1.9239    1.0901 H       1  LIG1          0.14
     25 H           0.0540    3.1933   -0.1108 H       1  LIG1          0.13
     26 H          -1.0535    1.2116   -1.0437 H       1  LIG1          0.13
     27 H           0.4353    1.5458   -1.9070 H       1  LIG1          0.13
     28 H           0.1418   -0.8667   -1.5381 H       1  LIG1          0.13
     29 H           1.5993   -0.2977   -0.7503 H       1  LIG1          0.13
     30 H           0.3829   -1.9179    0.6751 H       1  LIG1          0.13
     31 H           0.4986   -0.3491    1.4620 H       1  LIG1          0.13
     32 H          -1.7004   -1.4086    1.7731 H       1  LIG1          0.12
     33 H          -1.8776    0.1320    0.9310 H       1  LIG1          0.13
     34 H          -3.3245   -1.7318    0.0835 H       1  LIG1          0.12
     35 H          -2.3180   -1.0232   -1.1895 H       1  LIG1          0.13
     36 H          -2.4793   -3.5555   -1.2237 H       1  LIG1          0.12
     37 H          -0.8003   -2.9999   -1.0999 H       1  LIG1           0.12
@<TRIPOS>BOND
     1    19     2    1
     2    27     6    1
     3    18     2    1
     4    28     7    1
     5    20     3    1
     6     2     3    1
     7     2     1    1
     8    36    11    1
     9    35    10    1
    10    16     1    1
    11    37    11    1
    12    26     6    1
    13     6     7    1
    14     6     5    1
    15     3    21    1
    16     3     4    1
    17    29     7    1
    18     7     8    1
    19     1    17    1
    20     1    15    1
    21    11    10    1
    22    11    12    1
    23    10    34    1
    24    10     9    1
    25    25     5    1
    26     5     4    1
    27     5    24    1
    28     4    22    1
    29     4    23    1
    30     8    30    1
    31     8     9    1
    32     8    31    1
    33    12    14   ar
    34    12    13   ar
    35     9    33    1
    36     9    32    1
