@<TRIPOS>MOLECULE
PPKAIMDMNWBOKN-UHFFFAOYSA-M	6045076	-612.1796349017643
 22 22 0 0 0
SMALL
MULLIKEN NwChem

@<TRIPOS>ATOM
      1 C          -3.1530   -1.3871    1.0619 C.ar    1  LIG1      -0.16000000000000014
      2 C          -2.5743   -0.1152    1.0138 C.ar    1  LIG1      -0.16000000000000014
      3 C          -2.3393   -2.5152    0.9461 C.ar    1  LIG1      -0.15000000000000036
      4 C          -1.1964    0.0366    0.8552 C.ar    1  LIG1      -0.21999999999999975
      5 C          -0.9597   -2.3644    0.7851 C.ar    1  LIG1      -0.20999999999999996
      6 C           1.1226   -0.9342    0.5417 C.3     1  LIG1      -0.3600000000000003
      7 C           1.5124   -0.5801   -0.9150 C.3     1  LIG1       -0.34999999999999964
      8 C          -0.3707   -1.0944    0.7386 C.ar    1  LIG1      0.13999999999999968
      9 C           1.0903    0.8393   -1.3225 C.2     1  LIG1       0.3899999999999997
     10 C           1.7099    1.9534   -0.4548 C.2     1  LIG1       0.4800000000000004
     11 O           0.3486    1.0196   -2.2804 O.2     1  LIG1      -0.5399999999999991
     12 O           1.0266    2.2988    0.5473 O.co2   1  LIG1      -0.6099999999999994
     13 O           2.8461    2.3138   -0.8320 O.co2   1  LIG1      -0.6400000000000006
     14 H          -4.2285   -1.4980    1.1877 H       1  LIG1       0.15000000000000002
     15 H          -3.2021    0.7694    1.1007 H       1  LIG1       0.15000000000000002
     16 H          -2.7761   -3.5117    0.9821 H       1  LIG1       0.15000000000000002
     17 H          -0.7302    1.0218    0.8092 H       1  LIG1       0.17000000000000004
     18 H          -0.3279   -3.2472    0.6947 H       1  LIG1       0.15000000000000002
     19 H           1.4928   -0.1374    1.1956 H       1  LIG1       0.16000000000000003
     20 H           1.6286   -1.8662    0.8294 H       1  LIG1       0.16000000000000003
     21 H           2.6069   -0.6201   -1.0012 H       1  LIG1       0.17000000000000004
     22 H           1.0720   -1.2940   -1.6220 H       1  LIG1       0.15000000000000002
@<TRIPOS>BOND
     1    11     9    2
     2    22     7    1
     3     9     7    1
     4     9    10    1
     5    21     7    1
     6     7     6    1
     7    13    10   ar
     8    10    12   ar
     9     6     8    1
    10     6    20    1
    11     6    19    1
    12    18     5    1
    13     8     5   ar
    14     8     4   ar
    15     5     3   ar
    16    17     4    1
    17     4     2   ar
    18     3    16    1
    19     3     1   ar
    20     2     1   ar
    21     2    15    1
    22     1    14    1
