@<TRIPOS>MOLECULE
PPQRONHOSHZGFQ-LMVFSUKVSA-L	6045077	-1139.3140591304034
 23 22 0 0 0
SMALL
MULLIKEN NwChem

@<TRIPOS>ATOM
      1 C           2.8555   -1.4165    1.1624 C.2     1  LIG1       0.2400000000000002
      2 C          -1.0521   -1.0010    0.4600 C.3     1  LIG1       -0.05999999999999961
      3 C           2.1437   -0.2499    0.5200 C.3     1  LIG1       0.07000000000000028
      4 C           0.0912   -1.6467   -0.3449 C.3     1  LIG1       0.09999999999999964
      5 C           1.3113   -0.7619   -0.7205 C.3     1  LIG1       0.08000000000000007
      6 O           2.8645   -1.7447    2.3333 O.2     1  LIG1      -0.47000000000000064
      7 O           1.4873    0.5316    1.4485 O.3     1  LIG1      -0.7300000000000004
      8 O          -0.4675   -2.1652   -1.5583 O.3     1  LIG1      -0.6899999999999995
      9 O           1.0152    0.2778   -1.6050 O.3     1  LIG1      -0.7300000000000004
     10 O          -2.5423    2.2263   -1.0047 O.2     1  LIG1      -0.7300000000000004
     11 O          -2.2684    1.5750    1.5337 O.3     1  LIG1        -0.75
     12 O          -0.1895    1.8360    0.0233 O.3     1  LIG1      -0.8100000000000005
     13 O          -1.7812   -0.1290   -0.3714 O.3     1  LIG1      -0.6400000000000006
     14 P          -1.7591    1.5606    0.1049 P.3     1  LIG1       1.0199999999999996
     15 H           3.4575   -2.0051    0.4155 H       1  LIG1          0.12
     16 H          -1.7124   -1.8294    0.7820 H       1  LIG1          0.12
     17 H          -0.6745   -0.5090    1.3608 H       1  LIG1          0.14
     18 H           2.9848    0.2947    0.0156 H       1  LIG1          0.14
     19 H           0.4775   -2.5116    0.2227 H       1  LIG1          0.14
     20 H           1.9838   -1.4459   -1.2712 H       1  LIG1          0.13
     21 H           0.7747    1.1149    0.9578 H       1  LIG1       0.44999999999999996
     22 H          -1.0025   -1.3967   -1.8469 H       1  LIG1       0.41000000000000003
     23 H           0.4571    0.9659   -1.0797 H       1  LIG1       0.43999999999999995
@<TRIPOS>BOND
     1    22     8    1
     2     9    23    1
     3     9     5    1
     4     8     4    1
     5    20     5    1
     6    10    14    2
     7     5     4    1
     8     5     3    1
     9    13    14    1
    10    13     2    1
    11     4    19    1
    12     4     2    1
    13    18     3    1
    14    12    14    1
    15    14    11    1
    16    15     1    1
    17     2    16    1
    18     2    17    1
    19     3     1    1
    20     3     7    1
    21    21     7    1
    22     1     6    2
