@<TRIPOS>MOLECULE
PQGCEDQWHSBAJP-TXICZTDVSA-I	11085241	-2273.3234146671707
 30 30 0 0 0
SMALL
MULLIKEN NwChem

@<TRIPOS>ATOM
      1 C           3.4098   -0.4231    0.0594 C.3     1  LIG1       -0.009999999999999787
      2 C           1.9716   -0.1183   -0.4111 C.3     1  LIG1       0.11000000000000032
      3 C           1.6432    1.3771   -0.3791 C.3     1  LIG1       0.1200000000000001
      4 C           0.1093    1.3779   -0.4186 C.3     1  LIG1       0.040000000000000036
      5 C          -0.2020    0.1610    0.5282 C.3     1  LIG1       0.40000000000000036
      6 O           2.3265    2.1297   -1.3712 O.3     1  LIG1      -0.7200000000000006
      7 O          -0.3938    1.1951   -1.7179 O.3     1  LIG1      -0.7300000000000004
      8 O           6.3244    0.4122    0.9770 O.3     1  LIG1      -0.7899999999999991
      9 O           6.2386   -1.5028   -0.7801 O.3     1  LIG1      -0.7899999999999991
     10 O           6.6805    0.9503   -1.5488 O.2     1  LIG1      -0.7799999999999994
     11 O          -6.3968   -0.0962    0.6672 O.3     1  LIG1      -0.7699999999999996
     12 O          -5.9265   -2.3533   -0.5361 O.2     1  LIG1      -0.7699999999999996
     13 O          -5.6281   -2.1743    2.0311 O.3     1  LIG1      -0.7599999999999998
     14 O          -2.7898    1.0619    1.6717 O.3     1  LIG1      -0.7200000000000006
     15 O          -2.9556    1.0651   -0.9315 O.2     1  LIG1        -0.75
     16 O           4.3187    0.3013   -0.7428 O.3     1  LIG1      -0.6600000000000001
     17 O           0.9756   -0.7100    0.4370 O.3     1  LIG1      -0.5899999999999999
     18 O          -1.3415   -0.5609    0.2172 O.3     1  LIG1      -0.6500000000000004
     19 O          -3.8406   -0.9996    0.4092 O.3     1  LIG1      -0.6899999999999995
     20 P           6.0976    0.0023   -0.4886 P.3     1  LIG1       0.9000000000000004
     21 P          -5.6784   -1.4488    0.6795 P.3     1  LIG1       0.9499999999999993
     22 P          -2.8990    0.2634    0.3845 P.3     1  LIG1          1.08
     23 H           3.4940   -0.1371    1.1254 H       1  LIG1       0.10999999999999999
     24 H           3.6146   -1.5065   -0.0014 H       1  LIG1          0.12
     25 H           1.8523   -0.4662   -1.4510 H       1  LIG1          0.12
     26 H           1.9279    1.7376    0.6325 H       1  LIG1          0.12
     27 H          -0.3132    2.2901    0.0415 H       1  LIG1          0.13
     28 H          -0.2533    0.5174    1.5717 H       1  LIG1       0.10999999999999999
     29 H           3.2285    1.7218   -1.3417 H       1  LIG1       0.42000000000000004
     30 H          -1.3849    1.0681   -1.5576 H       1  LIG1       0.43999999999999995
@<TRIPOS>BOND
     1     7    30    1
     2     7     4    1
     3    10    20    2
     4    25     2    1
     5     6    29    1
     6     6     3    1
     7    15    22    2
     8     9    20    1
     9    16    20    1
    10    16     1    1
    11    12    21    2
    12    20     8    1
    13     4     3    1
    14     4    27    1
    15     4     5    1
    16     2     3    1
    17     2     1    1
    18     2    17    1
    19     3    26    1
    20    24     1    1
    21     1    23    1
    22    18    22    1
    23    18     5    1
    24    22    19    1
    25    22    14    1
    26    19    21    1
    27    17     5    1
    28     5    28    1
    29    11    21    1
    30    21    13    1
