@<TRIPOS>MOLECULE
PQMCQNOVNFNPFJ-HYIMLASBSA-K	11085240	-1516.9643732380837
 23 23 0 0 0
SMALL
MULLIKEN NwChem

@<TRIPOS>ATOM
      1 C          -1.3481   -2.5458   -0.0422 C.3     1  LIG1      -0.5300000000000002
      2 C           0.5655   -0.2478   -0.0053 C.2     1  LIG1      -0.23000000000000043
      3 C           1.6856    0.7672    0.0209 C.3     1  LIG1       -0.05999999999999961
      4 C          -1.7747   -1.1054   -0.1937 C.2     1  LIG1       0.33000000000000007
      5 C          -0.7618   -0.0373   -0.1165 C.2     1  LIG1       -0.11000000000000032
      6 C          -3.2825    0.5925   -0.5401 C.3     1  LIG1       -0.21999999999999975
      7 C          -4.4614    1.1813    0.3535 C.2     1  LIG1       0.5300000000000002
      8 N          -3.0101   -0.8168   -0.4036 N.2     1  LIG1      -0.45999999999999996
      9 O          -4.7992    0.5281    1.3647 O.co2   1  LIG1      -0.6500000000000004
     10 O          -4.9199    2.2654   -0.0997 O.co2   1  LIG1      -0.6699999999999999
     11 O           4.1883   -0.0807   -1.3961 O.2     1  LIG1      -0.7899999999999991
     12 O           2.9373   -2.0666   -0.2739 O.3     1  LIG1      -0.7799999999999994
     13 O           4.9843   -0.9811    0.9270 O.3     1  LIG1      -0.7699999999999996
     14 O           2.7834    0.3310    0.7630 O.3     1  LIG1      -0.6500000000000004
     15 P           3.8548   -0.8336   -0.0958 P.3     1  LIG1       0.8900000000000006
     16 S          -1.6463    1.5325   -0.2504 S.3     1  LIG1          0.0
     17 H          -0.9032   -2.7106    0.9465 H       1  LIG1       0.18000000000000005
     18 H          -0.5682   -2.8010   -0.7690 H       1  LIG1       0.18000000000000005
     19 H          -2.2145   -3.2031   -0.1695 H       1  LIG1       0.17000000000000004
     20 H           0.9818   -1.2603    0.0267 H       1  LIG1       0.18000000000000005
     21 H           1.3016    1.7224    0.4390 H       1  LIG1          0.13
     22 H           1.9847    0.9724   -1.0281 H       1  LIG1          0.13
     23 H          -3.5645    0.7959   -1.5822 H       1  LIG1       0.18000000000000005
@<TRIPOS>BOND
     1    23     6    1
     2    11    15    2
     3    22     3    1
     4    18     1    1
     5     6     8    1
     6     6    16    1
     7     6     7    1
     8     8     4    2
     9    12    15    1
    10    16     5    1
    11     4     5    1
    12     4     1    1
    13    19     1    1
    14     5     2    2
    15    10     7   ar
    16    15    14    1
    17    15    13    1
    18     1    17    1
    19     2     3    1
    20     2    20    1
    21     3    21    1
    22     3    14    1
    23     7     9   ar
