@<TRIPOS>MOLECULE
PRJKNHOMHKJCEJ-UHFFFAOYSA-M	6045081	-453.5757897519577
 14 14 0 0 0
SMALL
MULLIKEN NwChem

@<TRIPOS>ATOM
      1 C           0.6712    0.7306   -0.8216 C.3     1  LIG1       -0.46999999999999975
      2 C           0.3904   -1.9226   -0.8794 C.ar    1  LIG1       -0.13999999999999968
      3 C          -0.5915   -2.1346    1.0079 C.ar    1  LIG1       0.16999999999999993
      4 C           0.2778   -0.6445   -0.3668 C.ar    1  LIG1       0.2999999999999998
      5 C          -0.1209    1.9467   -0.1815 C.2     1  LIG1       0.5599999999999996
      6 N          -0.1541   -2.8544   -0.0145 N.ar    1  LIG1      -0.5199999999999996
      7 N          -0.3419   -0.8084    0.8485 N.ar    1  LIG1      -0.5899999999999999
      8 O          -0.1086    2.9891   -0.8582 O.co2   1  LIG1      -0.6500000000000004
      9 O          -0.6282    1.7608    0.9725 O.co2   1  LIG1      -0.6600000000000001
     10 H           0.5972    0.8122   -1.9108 H       1  LIG1       0.16000000000000003
     11 H           1.7298    0.9162   -0.5776 H       1  LIG1       0.17000000000000004
     12 H           0.8309   -2.2245   -1.8227 H       1  LIG1          0.13
     13 H          -1.0896   -2.5320    1.8840 H       1  LIG1       0.17000000000000004
     14 H          -0.6230    0.0829    1.3168 H       1  LIG1           0.37
@<TRIPOS>BOND
     1    10     1    1
     2    12     2    1
     3     2     4   ar
     4     2     6   ar
     5     8     5   ar
     6     1    11    1
     7     1     4    1
     8     1     5    1
     9     4     7   ar
    10     5     9   ar
    11     6     3   ar
    12     7     3   ar
    13     7    14    1
    14     3    13    1
