@<TRIPOS>MOLECULE
PSXWNITXWWECNY-UCBTUHGZSA-L	11085238	-2543.651076068543
 57 59 0 0 0
SMALL
MULLIKEN NwChem

@<TRIPOS>ATOM
      1 C          -8.2552    2.4711   -0.7468 C.3     1  LIG1      -0.5300000000000002
      2 C           6.2077   -1.4254   -3.0346 C.3     1  LIG1      -0.46999999999999975
      3 C          -2.7526    1.1081    1.7167 C.3     1  LIG1       -0.33999999999999986
      4 C          -5.9835    1.6842   -0.0309 C.ar    1  LIG1       0.009999999999999787
      5 C          -1.8078   -2.1129    0.0356 C.3     1  LIG1       -0.08000000000000007
      6 C          -7.3183    1.7160    0.1489 C.ar    1  LIG1       0.040000000000000036
      7 C           5.4458   -0.5324   -2.0727 C.3     1  LIG1       0.07000000000000028
      8 C          -2.0272   -0.2290    1.7364 C.3     1  LIG1       0.1200000000000001
      9 C          -2.0761   -0.6303    0.2562 C.3     1  LIG1       0.09999999999999964
     10 C          -3.7378    0.9565    0.5204 C.3     1  LIG1       0.28000000000000025
     11 C           6.3540    0.3737   -1.2481 C.2     1  LIG1       0.4299999999999997
     12 C           5.6974    1.1047   -0.0866 C.3     1  LIG1       0.05999999999999961
     13 C           4.8443    0.1050    0.7420 C.3     1  LIG1       0.1299999999999999
     14 C          -7.8879    0.9738    1.3038 C.ar    1  LIG1       0.4800000000000004
     15 C           3.9504   -0.7073   -0.2098 C.3     1  LIG1       0.21999999999999975
     16 C          -5.7189    0.1983    1.9024 C.ar    1  LIG1       0.6600000000000001
     17 N          -7.0447    0.2535    2.1029 N.ar    1  LIG1      -0.6600000000000001
     18 N          -5.1439    0.9963    0.8224 N.ar    1  LIG1      -0.4900000000000002
     19 O          -0.6867   -0.1468    2.2626 O.3     1  LIG1      -0.6899999999999995
     20 O           7.5580    0.4821   -1.4459 O.2     1  LIG1         -0.5
     21 O           6.6729    1.7518    0.7010 O.3     1  LIG1      -0.6899999999999995
     22 O           4.1329    0.7562    1.7616 O.3     1  LIG1      -0.6999999999999993
     23 O          -9.1194    1.0345    1.5004 O.2     1  LIG1      -0.6600000000000001
     24 O          -4.9187   -0.4633    2.5842 O.2     1  LIG1      -0.6300000000000008
     25 O           0.6963   -3.7368   -1.0744 O.2     1  LIG1      -0.6400000000000006
     26 O           1.8743   -2.6203    1.0466 O.3     1  LIG1      -0.6699999999999999
     27 O           1.4127    0.6114    0.8722 O.3     1  LIG1      -0.7599999999999998
     28 O           0.8732    1.2621   -1.6132 O.2     1  LIG1      -0.6099999999999994
     29 O          -0.6064   -2.4385    0.7604 O.3     1  LIG1      -0.5899999999999999
     30 O           4.7342   -1.3871   -1.1647 O.3     1  LIG1         -0.5
     31 O          -3.3939   -0.2832   -0.1423 O.3     1  LIG1      -0.5500000000000007
     32 O           3.0790    0.2067   -0.8947 O.3     1  LIG1      -0.5600000000000005
     33 O           0.9008   -1.2031   -0.9142 O.3     1  LIG1      -0.6699999999999999
     34 P           0.8319   -2.6900   -0.0259 P.3     1  LIG1          1.17
     35 P           1.4629    0.2611   -0.6979 P.3     1  LIG1       1.2799999999999994
     36 H          -8.9986    1.7969   -1.1929 H       1  LIG1       0.15000000000000002
     37 H          -8.8321    3.2089   -0.1734 H       1  LIG1       0.15000000000000002
     38 H          -7.7219    2.9898   -1.5558 H       1  LIG1       0.15000000000000002
     39 H           6.7656   -0.8199   -3.7552 H       1  LIG1       0.17000000000000004
     40 H           6.9180   -2.0505   -2.4856 H       1  LIG1       0.17000000000000004
     41 H           5.5024   -2.0706   -3.5655 H       1  LIG1       0.17000000000000004
     42 H          -2.0322    1.9079    1.5027 H       1  LIG1       0.17000000000000004
     43 H          -3.2759    1.3175    2.6476 H       1  LIG1       0.18000000000000005
     44 H          -5.4918    2.2052   -0.8519 H       1  LIG1       0.18000000000000005
     45 H          -2.6279   -2.6948    0.4694 H       1  LIG1       0.18000000000000005
     46 H          -1.7059   -2.3692   -1.0232 H       1  LIG1       0.18000000000000005
     47 H           4.7254    0.0976   -2.6144 H       1  LIG1       0.19999999999999996
     48 H          -2.6104   -0.9409    2.3254 H       1  LIG1       0.18000000000000005
     49 H          -1.3375   -0.0371   -0.3060 H       1  LIG1       0.16000000000000003
     50 H          -3.5589    1.7718   -0.1940 H       1  LIG1       0.17000000000000004
     51 H           4.9933    1.8387   -0.5108 H       1  LIG1       0.18000000000000005
     52 H           5.5438   -0.6003    1.2121 H       1  LIG1       0.17000000000000004
     53 H           3.3815   -1.4724    0.3287 H       1  LIG1       0.21999999999999997
     54 H          -0.3568   -1.0683    2.2070 H       1  LIG1       0.45999999999999996
     55 H           7.5129    1.5793    0.2330 H       1  LIG1       0.43000000000000005
     56 H           3.1927    0.8309    1.5013 H       1  LIG1       0.44999999999999996
     57 H           0.5434    0.4202    1.3479 H       1  LIG1           0.48
@<TRIPOS>BOND
     1    39     2    1
     2    41     2    1
     3     2    40    1
     4     2     7    1
     5    47     7    1
     6     7    11    1
     7     7    30    1
     8    28    35    2
     9    38     1    1
    10    20    11    2
    11    11    12    1
    12    36     1    1
    13    30    15    1
    14    25    34    2
    15    46     5    1
    16    33    35    1
    17    33    34    1
    18    32    35    1
    19    32    15    1
    20    44     4    1
    21     1    37    1
    22     1     6    1
    23    35    27    1
    24    51    12    1
    25    49     9    1
    26    15    53    1
    27    15    13    1
    28    50    10    1
    29    31     9    1
    30    31    10    1
    31    12    21    1
    32    12    13    1
    33     4     6   ar
    34     4    18   ar
    35    34    29    1
    36    34    26    1
    37     5     9    1
    38     5    45    1
    39     5    29    1
    40     6    14   ar
    41    55    21    1
    42     9     8    1
    43    10    18    1
    44    10     3    1
    45    13    52    1
    46    13    22    1
    47    18    16   ar
    48    27    57    1
    49    14    23    2
    50    14    17   ar
    51    56    22    1
    52    42     3    1
    53     3     8    1
    54     3    43    1
    55     8    19    1
    56     8    48    1
    57    16    17   ar
    58    16    24    2
    59    54    19    1
