@<TRIPOS>MOLECULE
PTJWIQPHWPFNBW-GBNDHIKLSA-N	6045084	-910.8409524243219
 29 30 0 0 0
SMALL
MULLIKEN NwChem

@<TRIPOS>ATOM
      1 C           0.6742   -1.8282    1.5766 C.ar    1  LIG1       0.019999999999999574
      2 C          -0.5080    2.5711   -1.9339 C.3     1  LIG1       -0.07000000000000028
      3 C           0.4757   -0.5514    1.0527 C.ar    1  LIG1       0.03000000000000025
      4 C           0.4440    1.3861   -1.8378 C.3     1  LIG1       0.1299999999999999
      5 C          -0.2410    0.0368   -2.0803 C.3     1  LIG1       0.09999999999999964
      6 C           0.7833   -0.9186   -1.4618 C.3     1  LIG1       0.08000000000000007
      7 C           1.2220   -0.1394   -0.2027 C.3     1  LIG1       0.08000000000000007
      8 C          -0.4536    0.2422    1.7697 C.ar    1  LIG1       0.4800000000000004
      9 C          -0.8307   -1.4830    3.1988 C.ar    1  LIG1       0.6500000000000004
     10 N           0.0421   -2.3259    2.6431 N.ar    1  LIG1      -0.5099999999999998
     11 N          -1.1074   -0.2306    2.8294 N.ar    1  LIG1      -0.5599999999999996
     12 O          -1.0826    2.5956   -3.2482 O.3     1  LIG1      -0.6500000000000004
     13 O          -0.4473   -0.2670   -3.4435 O.3     1  LIG1      -0.6799999999999997
     14 O           1.9005   -1.0585   -2.3222 O.3     1  LIG1      -0.6799999999999997
     15 O          -0.7372    1.5117    1.4447 O.3     1  LIG1      -0.6500000000000004
     16 O          -1.5023   -1.9603    4.2610 O.3     1  LIG1      -0.6199999999999992
     17 O           0.9934    1.2740   -0.5173 O.3     1  LIG1      -0.5800000000000001
     18 H           1.3909   -2.4976    1.0992 H       1  LIG1       0.18999999999999995
     19 H          -1.3394    2.4422   -1.2333 H       1  LIG1       0.17000000000000004
     20 H          -0.0014    3.5149   -1.6925 H       1  LIG1       0.17000000000000004
     21 H           1.2592    1.4963   -2.5670 H       1  LIG1       0.16000000000000003
     22 H          -1.1799   -0.0046   -1.5047 H       1  LIG1       0.16000000000000003
     23 H           0.3504   -1.8941   -1.2044 H       1  LIG1       0.17000000000000004
     24 H           2.3014   -0.2718   -0.0725 H       1  LIG1       0.18999999999999995
     25 H          -0.4383    3.0042   -3.8473 H       1  LIG1       0.43999999999999995
     26 H          -0.9102    0.5044   -3.8181 H       1  LIG1       0.43000000000000005
     27 H           1.5354   -1.1270   -3.2225 H       1  LIG1       0.43000000000000005
     28 H          -0.1157    1.7547    0.7202 H       1  LIG1          0.47
     29 H          -2.0851   -1.2386    4.5561 H       1  LIG1       0.44999999999999996
@<TRIPOS>BOND
     1    25    12    1
     2    26    13    1
     3    13     5    1
     4    12     2    1
     5    27    14    1
     6    21     4    1
     7    14     6    1
     8     5     4    1
     9     5    22    1
    10     5     6    1
    11     2     4    1
    12     2    20    1
    13     2    19    1
    14     4    17    1
    15     6    23    1
    16     6     7    1
    17    17     7    1
    18     7    24    1
    19     7     3    1
    20    28    15    1
    21     3     1   ar
    22     3     8   ar
    23    18     1    1
    24    15     8    1
    25     1    10   ar
    26     8    11   ar
    27    10     9   ar
    28    11     9   ar
    29     9    16    1
    30    16    29    1
