@<TRIPOS>MOLECULE
PUEDDPCUCPRQNY-ZYUZMQFOSA-N	6045086	-932.8752343506139
 31 32 0 0 0
SMALL
MULLIKEN NwChem

@<TRIPOS>ATOM
      1 C           1.4563   -1.6393    1.9122 C.2     1  LIG1      -0.17999999999999972
      2 C           1.5843   -0.6649    2.9066 C.3     1  LIG1       -0.11000000000000032
      3 C           0.5301   -1.4634    0.8983 C.2     1  LIG1      0.1200000000000001
      4 C          -0.1432    0.5920    1.8467 C.2     1  LIG1       0.08999999999999986
      5 C5*        -0.4004   -2.2339   -3.0120 C.3     1  LIG1       -0.08000000000000007
      6 C           0.7703    0.4693    2.8784 C.2     1  LIG1       -0.009999999999999787
      7 C4*        -1.0254   -1.0069   -2.3660 C.3     1  LIG1       0.1200000000000001
      8 C3*        -0.0744    0.1935   -2.2838 C.3     1  LIG1       0.09999999999999964
      9 C2*        -0.7448    1.0138   -1.1738 C.3     1  LIG1       0.07000000000000028
     10 C1*        -1.2339   -0.1054   -0.2300 C.3     1  LIG1       0.2599999999999998
     11 C           0.8574    1.6017    3.9574 C.2     1  LIG1       0.5300000000000002
     12 N          -0.2473   -0.3525    0.8784 N.pl3   1  LIG1      -0.4299999999999997
     13 O5*         0.0024   -1.8867   -4.3425 O.3     1  LIG1      -0.6600000000000001
     14 O3*         0.0048    0.9476   -3.4703 O.3     1  LIG1      -0.6799999999999997
     15 O2*        -1.8968    1.6634   -1.6656 O.3     1  LIG1      -0.6699999999999999
     16 O           0.0398    2.5244    3.7566 O.co2   1  LIG1      -0.6400000000000006
     17 O           1.7262    1.3875    4.8220 O.co2   1  LIG1      -0.6400000000000006
     18 O4*        -1.3898   -1.2732   -0.9979 O.3     1  LIG1      -0.5399999999999991
     19 H           2.0650   -2.5377    1.9112 H       1  LIG1       0.20999999999999996
     20 H           2.2960   -0.7416    3.7240 H       1  LIG1       0.18999999999999995
     21 H           0.3574   -2.1748    0.1044 H       1  LIG1          0.26
     22 H          -0.7910    1.4633    1.8062 H       1  LIG1       0.22999999999999998
     23 H5*1        0.5113   -2.5198   -2.4767 H       1  LIG1       0.18000000000000005
     24 H5*2       -1.0856   -3.0910   -2.9973 H       1  LIG1       0.18000000000000005
     25 H4*        -1.9204   -0.7018   -2.9244 H       1  LIG1       0.17000000000000004
     26 H3*         0.9192   -0.1449   -1.9471 H       1  LIG1       0.17000000000000004
     27 H2*        -0.0604    1.7115   -0.6741 H       1  LIG1       0.18999999999999995
     28 H1*        -2.1766    0.1685    0.2499 H       1  LIG1       0.22999999999999998
     29 H5*        -0.7671   -1.9795   -4.9258 H       1  LIG1       0.43999999999999995
     30 H3*         0.2309    0.3151   -4.1762 H       1  LIG1       0.43999999999999995
     31 H2*        -1.6545    2.0235   -2.5375 H       1  LIG1       0.43999999999999995
@<TRIPOS>BOND
     1    29    13    1
     2    13     5    1
     3    30    14    1
     4    14     8    1
     5     5    24    1
     6     5    23    1
     7     5     7    1
     8    25     7    1
     9    31    15    1
    10     7     8    1
    11     7    18    1
    12     8    26    1
    13     8     9    1
    14    15     9    1
    15     9    27    1
    16     9    10    1
    17    18    10    1
    18    10    28    1
    19    10    12    1
    20    21     3    1
    21    12     3    1
    22    12     4    1
    23     3     1    2
    24    22     4    1
    25     4     6    2
    26    19     1    1
    27     1     2    1
    28     6     2    1
    29     6    11    1
    30     2    20    1
    31    16    11   ar
    32    11    17   ar
