@<TRIPOS>MOLECULE
PUGBZUWUTZUUCP-ZRKHGVCBSA-N	6045087	-1170.514667207008
 77 80 0 0 0
SMALL
MULLIKEN NwChem

@<TRIPOS>ATOM
      1 C          -0.5458   -6.9766    1.5033 C.3     1  LIG1      -0.46999999999999975
      2 C          -1.1475   -5.5178   -0.4391 C.3     1  LIG1      -0.45999999999999996
      3 C           2.3674   -6.1254    1.2321 C.3     1  LIG1      -0.4800000000000004
      4 C           3.1899   -1.6652   -0.2886 C.3     1  LIG1      -0.4800000000000004
      5 C          -0.8497    2.5234   -2.3727 C.3     1  LIG1         -0.5
      6 C           2.0800   -0.1982    2.6490 C.3     1  LIG1      -0.4900000000000002
      7 C           1.7264   -4.5496   -0.6390 C.3     1  LIG1      -0.29000000000000004
      8 C           1.1837   -3.1128   -0.7422 C.3     1  LIG1      -0.29000000000000004
      9 C          -2.9060    2.6500   -0.2231 C.3     1  LIG1      -0.3200000000000003
     10 C          -2.1363    1.6741    0.6240 C.2     1  LIG1      -0.21999999999999975
     11 C          -0.4716   -1.4722    1.2399 C.3     1  LIG1      -0.2999999999999998
     12 C          -0.8572   -0.4103    2.2948 C.3     1  LIG1      -0.2999999999999998
     13 C          -0.6380    6.0190   -1.5615 C.3     1  LIG1      -0.29000000000000004
     14 C           1.3696    2.0164   -0.4605 C.3     1  LIG1      -0.29000000000000004
     15 C           0.1632    4.7074   -1.5415 C.3     1  LIG1      -0.3099999999999996
     16 C           2.1139    1.3383    0.6860 C.3     1  LIG1      -0.28000000000000025
     17 C          -2.8418    4.8032   -1.5684 C.3     1  LIG1      -0.3200000000000003
     18 C           0.0055   -6.2608    0.2591 C.3     1  LIG1      -0.05999999999999961
     19 C           1.2089   -5.3390    0.5970 C.3     1  LIG1      -0.05999999999999961
     20 C           1.8234   -2.1112    0.2552 C.3     1  LIG1      -0.07000000000000028
     21 C          -2.0656    3.8720   -0.6101 C.3     1  LIG1      -0.09999999999999964
     22 C          -1.9499    5.8273   -2.3081 C.3     1  LIG1       0.16000000000000014
     23 C          -0.8054    1.6914    0.7811 C.2     1  LIG1      0.16999999999999993
     24 C           0.8291   -0.9577    0.5340 C.3     1  LIG1      -0.08999999999999986
     25 C          -0.0961    0.8521    1.8541 C.3     1  LIG1      -0.16999999999999993
     26 C           0.0650    2.6854    0.0163 C.3     1  LIG1      -0.16999999999999993
     27 C          -0.6720    3.4387   -1.1404 C.3     1  LIG1      0.1299999999999999
     28 C           1.2829    0.2600    1.4089 C.3     1  LIG1      0.08999999999999986
     29 O          -2.5755    7.1070   -2.4229 O.3     1  LIG1      -0.6899999999999995
     30 H          -0.8696   -6.2467    2.2576 H       1  LIG1          0.14
     31 H           0.1900   -7.6379    1.9702 H       1  LIG1       0.15000000000000002
     32 H          -1.4168   -7.5907    1.2454 H       1  LIG1          0.14
     33 H          -1.5472   -4.7236    0.2039 H       1  LIG1          0.14
     34 H          -0.8392   -5.0633   -1.3856 H       1  LIG1       0.15000000000000002
     35 H          -1.9692   -6.2094   -0.6593 H       1  LIG1          0.14
     36 H           2.7587   -6.8748    0.5307 H       1  LIG1          0.14
     37 H           3.1946   -5.4527    1.4900 H       1  LIG1          0.14
     38 H           2.0735   -6.6464    2.1485 H       1  LIG1       0.15000000000000002
     39 H           3.0728   -1.0353   -1.1796 H       1  LIG1          0.14
     40 H           3.7717   -1.1046    0.4471 H       1  LIG1       0.16000000000000003
     41 H           3.7908   -2.5363   -0.5755 H       1  LIG1          0.14
     42 H          -1.4954    2.9963   -3.1208 H       1  LIG1       0.15000000000000002
     43 H           0.1060    2.3181   -2.8636 H       1  LIG1       0.15000000000000002
     44 H          -1.2955    1.5627   -2.0985 H       1  LIG1       0.15000000000000002
     45 H           2.1612    0.6209    3.3746 H       1  LIG1          0.14
     46 H           1.6265   -1.0542    3.1590 H       1  LIG1       0.15000000000000002
     47 H           3.0976   -0.4912    2.3735 H       1  LIG1       0.15000000000000002
     48 H           2.8229   -4.5149   -0.6155 H       1  LIG1          0.14
     49 H           1.4772   -5.1035   -1.5532 H       1  LIG1          0.13
     50 H           1.3434   -2.7267   -1.7595 H       1  LIG1          0.12
     51 H           0.1011   -3.1381   -0.5994 H       1  LIG1       0.15000000000000002
     52 H          -3.7972    2.9806    0.3306 H       1  LIG1          0.14
     53 H          -3.2968    2.1555   -1.1271 H       1  LIG1          0.14
     54 H          -2.7431    0.9606    1.1755 H       1  LIG1          0.12
     55 H          -0.3083   -2.4507    1.7062 H       1  LIG1       0.15000000000000002
     56 H          -1.2774   -1.6038    0.5108 H       1  LIG1          0.14
     57 H          -1.9369   -0.2765    2.3876 H       1  LIG1          0.14
     58 H          -0.5075   -0.7071    3.2886 H       1  LIG1          0.14
     59 H          -0.0538    6.8125   -2.0408 H       1  LIG1          0.14
     60 H          -0.8623    6.3634   -0.5440 H       1  LIG1          0.14
     61 H           2.0195    2.7656   -0.9295 H       1  LIG1          0.14
     62 H           1.1438    1.2762   -1.2350 H       1  LIG1       0.15000000000000002
     63 H           0.5993    4.5529   -2.5368 H       1  LIG1          0.14
     64 H           1.0125    4.8341   -0.8608 H       1  LIG1          0.14
     65 H           2.3907    2.1009    1.4306 H       1  LIG1          0.12
     66 H           3.0558    0.9185    0.3202 H       1  LIG1          0.14
     67 H          -3.5753    5.3675   -0.9783 H       1  LIG1          0.14
     68 H          -3.4124    4.2076   -2.2927 H       1  LIG1          0.14
     69 H           0.3753   -7.0296   -0.4386 H       1  LIG1          0.12
     70 H           0.8541   -4.6126    1.3451 H       1  LIG1          0.13
     71 H           1.9988   -2.6360    1.2063 H       1  LIG1          0.13
     72 H          -1.8783    4.4343    0.3161 H       1  LIG1          0.13
     73 H          -1.7124    5.4418   -3.3149 H       1  LIG1          0.12
     74 H           0.5348   -0.5565   -0.4455 H       1  LIG1          0.12
     75 H           0.0742    1.5315    2.7039 H       1  LIG1          0.13
     76 H           0.3666    3.4556    0.7490 H       1  LIG1          0.13
     77 H          -3.4355    6.9785   -2.8527 H       1  LIG1       0.42000000000000004
@<TRIPOS>BOND
     1    73    22    1
     2    42     5    1
     3    43     5    1
     4    77    29    1
     5    63    15    1
     6    29    22    1
     7     5    44    1
     8     5    27    1
     9    22    17    1
    10    22    13    1
    11    68    17    1
    12    59    13    1
    13    50     8    1
    14    17    67    1
    15    17    21    1
    16    13    15    1
    17    13    60    1
    18    49     7    1
    19    15    27    1
    20    15    64    1
    21    34     2    1
    22    62    14    1
    23    39     4    1
    24    27    21    1
    25    27    26    1
    26    53     9    1
    27    61    14    1
    28     8     7    1
    29     8    51    1
    30     8    20    1
    31    35     2    1
    32     7    48    1
    33     7    19    1
    34    21     9    1
    35    21    72    1
    36    41     4    1
    37    14    26    1
    38    14    16    1
    39    74    24    1
    40     2    33    1
    41     2    18    1
    42    69    18    1
    43     4    20    1
    44     4    40    1
    45     9    52    1
    46     9    10    1
    47    26    76    1
    48    26    23    1
    49    20    24    1
    50    20    71    1
    51    18    19    1
    52    18     1    1
    53    66    16    1
    54    56    11    1
    55    36     3    1
    56    24    11    1
    57    24    28    1
    58    19     3    1
    59    19    70    1
    60    10    23    2
    61    10    54    1
    62    16    28    1
    63    16    65    1
    64    23    25    1
    65     3    37    1
    66     3    38    1
    67    11    55    1
    68    11    12    1
    69    32     1    1
    70    28    25    1
    71    28     6    1
    72     1    31    1
    73     1    30    1
    74    25    12    1
    75    25    75    1
    76    12    57    1
    77    12    58    1
    78    47     6    1
    79     6    46    1
    80     6    45    1
