@<TRIPOS>MOLECULE
PVNIIMVLHYAWGP-UHFFFAOYSA-M	6045089	-436.3342945039125
 13 13 0 0 0
SMALL
MULLIKEN NwChem

@<TRIPOS>ATOM
      1 C          -0.2225    2.1751    0.0606 C.ar    1  LIG1      -0.16000000000000014
      2 C          -0.8767    0.9444   -0.0118 C.ar    1  LIG1      -0.16999999999999993
      3 C           1.1719    2.1834    0.1295 C.ar    1  LIG1       0.009999999999999787
      4 C           1.2659   -0.0982    0.0596 C.ar    1  LIG1       -0.03000000000000025
      5 C          -0.1266   -0.2331   -0.0136 C.ar    1  LIG1       0.04999999999999982
      6 C          -0.8108   -1.6274   -0.0935 C.2     1  LIG1       0.4800000000000004
      7 N           1.9245    1.0727    0.1304 N.ar    1  LIG1      -0.46999999999999975
      8 O          -0.0229   -2.6046   -0.0889 O.co2   1  LIG1      -0.6600000000000001
      9 O          -2.0652   -1.5924   -0.1525 O.co2   1  LIG1      -0.6600000000000001
     10 H          -0.7749    3.1140    0.0639 H       1  LIG1       0.16000000000000003
     11 H          -1.9581    0.8500   -0.0680 H       1  LIG1       0.15000000000000002
     12 H           1.7146    3.1296    0.1869 H       1  LIG1       0.16000000000000003
     13 H           1.8626   -1.0078    0.0591 H       1  LIG1       0.15000000000000002
@<TRIPOS>BOND
     1     9     6   ar
     2     6     8   ar
     3     6     5    1
     4    11     2    1
     5     5     2   ar
     6     5     4   ar
     7     2     1   ar
     8    13     4    1
     9     4     7   ar
    10     1    10    1
    11     1     3   ar
    12     3     7   ar
    13     3    12    1
