@<TRIPOS>MOLECULE
PVWNFAGYFUUDRC-UHFFFAOYSA-N	6045090	-566.854429248316
 22 22 0 0 0
SMALL
MULLIKEN NwChem

@<TRIPOS>ATOM
      1 C          -0.0238    3.4024    1.5901 C.3     1  LIG1             -0.54
      2 C          -0.9225   -1.8049   -0.7145 C.3     1  LIG1       -0.2599999999999998
      3 C          -1.1943    0.7084   -0.6273 C.3     1  LIG1       -0.03000000000000025
      4 C           1.1731   -2.1935   -1.7598 C.2     1  LIG1          0.25
      5 C          -0.2661    2.0688    0.9416 C.2     1  LIG1          0.54
      6 C          -0.6312   -0.4347   -0.1362 C.2     1  LIG1       0.019999999999999574
      7 C           0.2334   -0.3382    1.0451 C.2     1  LIG1       0.4800000000000004
      8 N           0.8741   -1.2366    1.6965 N.pl3   1  LIG1        -0.75
      9 N           0.2454   -2.6434   -1.0177 N.2     1  LIG1      -0.4400000000000004
     10 N          -1.0279    1.9775   -0.1157 N.2     1  LIG1      -0.5300000000000002
     11 N           0.3406    0.9912    1.5080 N.pl3   1  LIG1      -0.6299999999999999
     12 O           1.3121   -0.9816   -2.3513 O.2     1  LIG1      -0.5899999999999999
     13 H          -0.3830    3.4027    2.6265 H       1  LIG1       0.19999999999999996
     14 H          -0.5526    4.1731    1.0287 H       1  LIG1       0.18999999999999995
     15 H           1.0465    3.6404    1.6081 H       1  LIG1       0.19999999999999996
     16 H          -1.5248   -2.3664    0.0103 H       1  LIG1       0.18000000000000005
     17 H          -1.5453   -1.6879   -1.6138 H       1  LIG1       0.18999999999999995
     18 H          -1.8499    0.6549   -1.4964 H       1  LIG1       0.18000000000000005
     19 H           2.0214   -2.8300   -2.0088 H       1  LIG1       0.18999999999999995
     20 H           0.7624   -2.1500    1.2549 H       1  LIG1       0.31999999999999995
     21 H           0.9260    1.1019    2.3294 H       1  LIG1          0.38
     22 H           0.6289   -0.3734   -2.0121 H       1  LIG1       0.44999999999999996
@<TRIPOS>BOND
     1    12    22    1
     2    12     4    1
     3    19     4    1
     4     4     9    2
     5    17     2    1
     6    18     3    1
     7     9     2    1
     8     2     6    1
     9     2    16    1
    10     3     6    1
    11     3    10    1
    12     6     7    2
    13    10     5    2
    14     5    11    1
    15     5     1    1
    16    14     1    1
    17     7    11    1
    18     7     8    1
    19    20     8    1
    20    11    21    1
    21     1    15    1
    22     1    13    1
