@<TRIPOS>MOLECULE
PWFXLXMPGSLEOZ-QQVWSJFJSA-M	11085235	-1529.3682063510125
 34 37 0 0 0
SMALL
MULLIKEN NwChem

@<TRIPOS>ATOM
      1 C          -3.0439   -0.3401    2.0758 C.3     1  LIG1       -0.09999999999999964
      2 C          -1.8859    0.6305    1.8658 C.3     1  LIG1       0.11000000000000032
      3 C           0.6561    1.6826    1.2238 C.3     1  LIG1       -0.1299999999999999
      4 C           2.3916    0.8071   -0.1106 C.ar    1  LIG1       0.1200000000000001
      5 C          -0.4382    1.8249    0.1501 C.2     1  LIG1       0.4800000000000004
      6 C          -1.7242    0.9993    0.3833 C.3     1  LIG1       0.019999999999999574
      7 C           1.8633   -0.4258    0.0136 C.ar    1  LIG1       0.4900000000000002
      8 C           3.3712    1.0901   -1.1868 C.ar    1  LIG1       0.4900000000000002
      9 C           0.5475    0.3018    1.9105 C.3     1  LIG1       0.2599999999999998
     10 C           3.2451   -1.1809   -1.8433 C.ar    1  LIG1       0.5599999999999996
     11 N           3.4748   -2.2119   -2.6059 N.pl3   1  LIG1      -0.7999999999999998
     12 N           2.0054    1.8697    0.7630 N.pl3   1  LIG1      -0.6500000000000004
     13 N           0.8491   -0.7426    0.9569 N.pl3   1  LIG1      -0.6500000000000004
     14 N           2.3251   -1.4551   -0.7752 N.ar    1  LIG1        -0.71
     15 N           3.7766    0.0666   -1.9754 N.ar    1  LIG1      -0.6699999999999999
     16 O          -0.3682    2.5957   -0.7787 O.2     1  LIG1      -0.4800000000000004
     17 O           3.7634    2.2753   -1.2952 O.2     1  LIG1      -0.6799999999999997
     18 O          -4.1511   -0.6281   -0.6896 O.3     1  LIG1      -0.6899999999999995
     19 O          -2.4012   -2.5516   -1.0788 O.2     1  LIG1      -0.5700000000000003
     20 O          -2.9039   -1.5232    1.2631 O.3     1  LIG1      -0.5399999999999991
     21 O          -0.7429    0.0720    2.4929 O.3     1  LIG1      -0.5299999999999994
     22 O          -1.6496   -0.1471   -0.4902 O.3     1  LIG1      -0.5399999999999991
     23 P          -2.7211   -1.3345   -0.3212 P.3     1  LIG1       1.2300000000000004
     24 H          -3.0467   -0.6878    3.1106 H       1  LIG1       0.20999999999999996
     25 H          -4.0001    0.1479    1.8494 H       1  LIG1       0.19999999999999996
     26 H          -2.1553    1.5725    2.3776 H       1  LIG1       0.18999999999999995
     27 H           0.4089    2.4327    1.9945 H       1  LIG1       0.21999999999999997
     28 H          -2.5818    1.6122    0.0770 H       1  LIG1       0.20999999999999996
     29 H           1.2246    0.2975    2.7741 H       1  LIG1       0.18000000000000005
     30 H           4.1260   -1.8861   -3.3245 H       1  LIG1          0.26
     31 H           2.1624    2.7420    0.2564 H       1  LIG1       0.32999999999999996
     32 H           1.0041   -1.6372    1.4146 H       1  LIG1          0.36
     33 H           1.7052   -2.2330   -0.9651 H       1  LIG1          0.35
     34 H          -4.2630   -0.6120   -1.6543 H       1  LIG1           0.48
@<TRIPOS>BOND
     1    30    11    1
     2    11    10    1
     3    15    10   ar
     4    15     8   ar
     5    10    14   ar
     6    34    18    1
     7    17     8    2
     8     8     4   ar
     9    19    23    2
    10    33    14    1
    11    16     5    2
    12    14     7   ar
    13    18    23    1
    14    22    23    1
    15    22     6    1
    16    23    20    1
    17     4     7   ar
    18     4    12    1
    19     7    13    1
    20    28     6    1
    21     5     6    1
    22     5     3    1
    23    31    12    1
    24     6     2    1
    25    12     3    1
    26    13    32    1
    27    13     9    1
    28     3     9    1
    29     3    27    1
    30    20     1    1
    31    25     1    1
    32     2     1    1
    33     2    26    1
    34     2    21    1
    35     9    21    1
    36     9    29    1
    37     1    24    1
