@<TRIPOS>MOLECULE
PXQPEWDEAKTCGB-UHFFFAOYSA-M	6045092	-602.8470966019
 14 14 0 0 0
SMALL
MULLIKEN NwChem

@<TRIPOS>ATOM
      1 C1          0.0541    1.2087    0.0082 C.3     1  <1>        -0.29000000000000004
      2 C2         -0.6186    0.0111    0.0010 C.2     1  <1>        0.2599999999999998
      3 C3          1.5188    1.2085    0.0101 C.2     1  <1>        0.5199999999999996
      4 C4         -2.1099   -0.0487   -0.0033 C.2     1  <1>        0.5599999999999996
      5 C5          1.3407   -1.0970   -0.0015 C.2     1  <1>        0.6100000000000003
      6 N1          0.0026   -1.1995   -0.0032 N.2     1  <1>       -0.6299999999999999
      7 N2          2.1305   -0.0443    0.0027 N.am    1  <1>       -0.5999999999999996
      8 O1          2.1748    2.2635    0.0182 O.2     1  <1>       -0.6699999999999999
      9 O2         -2.7987   -1.0514   -0.0083 O.2     1  <1>       -0.5199999999999996
     10 O3         -2.7039    1.1898   -0.0019 O.3     1  <1>       -0.5999999999999996
     11 O4          1.9798   -2.3162   -0.0041 O.2     1  <1>       -0.6600000000000001
     12 H1         -0.4616    2.1610    0.0130 H       1  <1>           0.14
     13 H2         -3.6566    0.9882   -0.0062 H       1  <1>        0.43999999999999995
     14 H3          1.2381   -2.9462   -0.0043 H       1  <1>        0.43000000000000005
@<TRIPOS>BOND
     1     9     4    2
     2    13    10    1
     3    14    11    1
     4    11     5    1
     5     4    10    1
     6     4     2    1
     7     6     5    1
     8     6     2    2
     9     5     7    2
    10     2     1    1
    11     7     3    1
    12     1     3    1
    13     1    12    1
    14     3     8    2
