@<TRIPOS>MOLECULE
PXYPZMRMTKVYSM-VXGBXAGGSA-N	6045093	-951.1077816452154
 33 34 0 0 0
SMALL
MULLIKEN NwChem

@<TRIPOS>ATOM
      1 C           1.7494   -0.3861   -3.1390 C.ar    1  LIG1      -0.13999999999999968
      2 C           0.4981    0.2387   -3.1140 C.ar    1  LIG1      -0.17999999999999972
      3 C           1.9942   -1.4741   -2.2990 C.ar    1  LIG1      -0.15000000000000036
      4 C          -0.4958   -0.2162   -2.2447 C.ar    1  LIG1      -0.20000000000000018
      5 C           0.9976   -1.9274   -1.4311 C.ar    1  LIG1      -0.20000000000000018
      6 C          -1.3217   -1.7722   -0.4335 C.3     1  LIG1       -0.33999999999999986
      7 C           1.5350    1.3359    0.1498 C.3     1  LIG1       -0.05999999999999961
      8 C          -0.2549   -1.3028   -1.3883 C.ar    1  LIG1      0.13999999999999968
      9 C          -0.2339   -1.0011    1.7519 C.2     1  LIG1          0.54
     10 C          -0.9788    1.3344    0.6617 C.2     1  LIG1          0.54
     11 C          -1.4797   -0.9195    0.8572 C.3     1  LIG1       0.3200000000000003
     12 C           0.4450    1.1594    1.2307 C.3     1  LIG1       0.2999999999999998
     13 N          -1.8674    0.4245    0.5410 N.2     1  LIG1      -0.5300000000000002
     14 N           0.6386   -0.0914    1.9228 N.2     1  LIG1        -0.54
     15 O           1.3082    2.4822   -0.6645 O.3     1  LIG1      -0.6600000000000001
     16 O          -0.0993   -2.1740    2.4024 O.2     1  LIG1      -0.6300000000000008
     17 O          -1.3069    2.5888    0.3198 O.2     1  LIG1      -0.6199999999999992
     18 O          -2.5438   -1.5745    1.5737 O.3     1  LIG1      -0.6799999999999997
     19 O           0.6584    2.2452    2.1384 O.3     1  LIG1      -0.6600000000000001
     20 H           2.5232   -0.0305   -3.8132 H       1  LIG1       0.16000000000000003
     21 H           0.2919    1.0707   -3.7835 H       1  LIG1       0.17000000000000004
     22 H           2.9618   -1.9678   -2.3147 H       1  LIG1       0.16000000000000003
     23 H          -1.4663    0.2706   -2.2216 H       1  LIG1       0.16000000000000003
     24 H           1.1976   -2.7662   -0.7689 H       1  LIG1       0.16000000000000003
     25 H          -2.3085   -1.7435   -0.9052 H       1  LIG1       0.18000000000000005
     26 H          -1.1352   -2.8059   -0.1234 H       1  LIG1       0.18000000000000005
     27 H           2.4717    1.4882    0.6919 H       1  LIG1       0.17000000000000004
     28 H           1.6111    0.4267   -0.4460 H       1  LIG1       0.18000000000000005
     29 H           0.8086    2.1773   -1.4389 H       1  LIG1       0.43999999999999995
     30 H          -0.9832   -2.5921    2.3764 H       1  LIG1       0.45999999999999996
     31 H          -0.5074    3.1373    0.4433 H       1  LIG1       0.44999999999999996
     32 H          -3.0347   -0.8706    2.0293 H       1  LIG1       0.43999999999999995
     33 H           0.2113    2.0120    2.9688 H       1  LIG1       0.43000000000000005
@<TRIPOS>BOND
     1    20     1    1
     2    21     2    1
     3     1     2   ar
     4     1     3   ar
     5     2     4   ar
     6    22     3    1
     7     3     5   ar
     8     4    23    1
     9     4     8   ar
    10    29    15    1
    11     5     8   ar
    12     5    24    1
    13     8     6    1
    14    25     6    1
    15    15     7    1
    16    28     7    1
    17     6    26    1
    18     6    11    1
    19     7    27    1
    20     7    12    1
    21    17    31    1
    22    17    10    1
    23    13    10    2
    24    13    11    1
    25    10    12    1
    26    11    18    1
    27    11     9    1
    28    12    14    1
    29    12    19    1
    30    18    32    1
    31     9    14    2
    32     9    16    1
    33    19    33    1
    34    30    16    1
