@<TRIPOS>MOLECULE
PXZWKVIXSKSCFR-UHFFFAOYSA-N	6045094	-581.7264537027934
 19 20 0 0 0
SMALL
MULLIKEN NwChem

@<TRIPOS>ATOM
      1 C           2.7038   -0.6425    0.1374 C.2     1  LIG1       0.019999999999999574
      2 C           2.7923    0.8498   -0.1442 C.3     1  LIG1       -0.16999999999999993
      3 C           0.4113   -0.6164    0.0170 C.2     1  LIG1       0.15000000000000036
      4 C           0.3668    0.7772    0.0790 C.3     1  LIG1       0.6600000000000001
      5 C          -0.8592   -1.2618   -0.0505 C.2     1  LIG1       0.5199999999999996
      6 C          -2.0725    0.7222   -0.0179 C.cat   1  LIG1       0.6100000000000003
      7 N          -3.1105    1.4750   -0.0315 N.pl3   1  LIG1      -0.7599999999999998
      8 N           1.6111   -1.3075    0.1690 N.2     1  LIG1      -0.4900000000000002
      9 N           1.5207    1.4830    0.2182 N.3     1  LIG1      -0.6600000000000001
     10 N          -0.8265    1.4096    0.0712 N.pl3   1  LIG1        -0.71
     11 N          -2.0211   -0.6526   -0.0835 N.2     1  LIG1      -0.6299999999999999
     12 O          -0.8594   -2.6037   -0.0929 O.2     1  LIG1      -0.6300000000000008
     13 H           3.6425   -1.1767    0.2831 H       1  LIG1       0.17000000000000004
     14 H           3.0337    1.0173   -1.2103 H       1  LIG1       0.18999999999999995
     15 H           3.5949    1.3065    0.4457 H       1  LIG1       0.19999999999999996
     16 H          -3.9393    0.8835   -0.1001 H       1  LIG1       0.30000000000000004
     17 H           1.4752    2.4922    0.1836 H       1  LIG1          0.39
     18 H          -0.9036    2.4186    0.1204 H       1  LIG1          0.38
     19 H          -1.8005   -2.8578   -0.1277 H       1  LIG1       0.44999999999999996
@<TRIPOS>BOND
     1    14     2    1
     2     2     1    1
     3     2     9    1
     4     2    15    1
     5    19    12    1
     6    16     7    1
     7    12     5    1
     8    11     5    1
     9    11     6    2
    10     5     3    2
    11     7     6    1
    12     6    10    1
    13     3     4    1
    14     3     8    1
    15    10     4    1
    16    10    18    1
    17     4     9    1
    18     1     8    2
    19     1    13    1
    20    17     9    1
