@<TRIPOS>MOLECULE
PYMYPHUHKUWMLA-VPENINKCSA-N	6045096	-572.5113067735772
 20 19 0 0 0
SMALL
MULLIKEN NwChem

@<TRIPOS>ATOM
      1 C          -1.7462   -0.2425    1.2021 C.2     1  LIG1       0.2400000000000002
      2 C           1.6764    0.2756    0.6192 C.3     1  LIG1       -0.08999999999999986
      3 C          -1.1270   -0.9427    0.0108 C.3     1  LIG1       0.05999999999999961
      4 C           0.6235    0.9809   -0.2356 C.3     1  LIG1       0.08999999999999986
      5 C          -0.3892    0.0399   -0.9167 C.3     1  LIG1       0.11000000000000032
      6 O          -1.4935   -0.5930    2.3393 O.2     1  LIG1      -0.4399999999999995
      7 O           2.3293   -0.7514   -0.1173 O.3     1  LIG1      -0.6799999999999997
      8 O          -0.2488   -1.9676    0.4370 O.3     1  LIG1      -0.6699999999999999
      9 O           1.2372    1.7468   -1.2778 O.3     1  LIG1      -0.6699999999999999
     10 O          -1.3880    0.8064   -1.5712 O.3     1  LIG1      -0.6799999999999997
     11 H          -2.4314    0.5945    0.9777 H       1  LIG1       0.18000000000000005
     12 H           2.4396    1.0103    0.8963 H       1  LIG1       0.16000000000000003
     13 H           1.2215   -0.1090    1.5416 H       1  LIG1       0.15000000000000002
     14 H          -1.9554   -1.3635   -0.5840 H       1  LIG1       0.18999999999999995
     15 H           0.0733    1.7053    0.3787 H       1  LIG1       0.16000000000000003
     16 H           0.1685   -0.5787   -1.6377 H       1  LIG1       0.15000000000000002
     17 H           1.7112   -1.5057   -0.1012 H       1  LIG1       0.43000000000000005
     18 H          -0.3618   -2.0235    1.4074 H       1  LIG1       0.43999999999999995
     19 H           1.9155    1.1626   -1.6626 H       1  LIG1       0.43000000000000005
     20 H          -0.9052    1.5189   -2.0261 H       1  LIG1       0.43000000000000005
@<TRIPOS>BOND
     1    20    10    1
     2    19     9    1
     3    16     5    1
     4    10     5    1
     5     9     4    1
     6     5     4    1
     7     5     3    1
     8    14     3    1
     9     4    15    1
    10     4     2    1
    11     7    17    1
    12     7     2    1
    13     3     8    1
    14     3     1    1
    15     8    18    1
    16     2    12    1
    17     2    13    1
    18    11     1    1
    19     1     6    2
