@<TRIPOS>MOLECULE
PYMYPHUHKUWMLA-LMVFSUKVSA-N	6045095	-572.5115361713033
 20 19 0 0 0
SMALL
MULLIKEN NwChem

@<TRIPOS>ATOM
      1 C           1.9588   -0.4327    1.0298 C.2     1  LIG1       0.2400000000000002
      2 C          -1.7183   -0.3891    0.4031 C.3     1  LIG1       -0.07000000000000028
      3 C           1.2520    0.6566    0.2485 C.3     1  LIG1       0.05999999999999961
      4 C          -0.6620   -0.9540   -0.5671 C.3     1  LIG1       0.08999999999999986
      5 C           0.4513    0.0558   -0.9354 C.3     1  LIG1       0.07000000000000028
      6 O           1.7930   -0.5581    2.2271 O.2     1  LIG1      -0.4399999999999995
      7 O          -2.0448    0.9870    0.1600 O.3     1  LIG1      -0.6799999999999997
      8 O           0.4651    1.4357    1.1342 O.3     1  LIG1      -0.6799999999999997
      9 O          -1.2468   -1.4150   -1.7765 O.3     1  LIG1      -0.6799999999999997
     10 O          -0.0829    1.0754   -1.7674 O.3     1  LIG1      -0.6799999999999997
     11 H           2.6284   -1.1054    0.4602 H       1  LIG1       0.18000000000000005
     12 H          -2.6339   -0.9718    0.2704 H       1  LIG1       0.16000000000000003
     13 H          -1.3727   -0.5135    1.4384 H       1  LIG1       0.16000000000000003
     14 H           2.0232    1.2972   -0.2106 H       1  LIG1       0.18999999999999995
     15 H          -0.2110   -1.8373   -0.0929 H       1  LIG1       0.16000000000000003
     16 H           1.1788   -0.4816   -1.5576 H       1  LIG1       0.18000000000000005
     17 H          -1.3715    1.4864    0.6636 H       1  LIG1       0.43999999999999995
     18 H           0.6414    1.0739    2.0270 H       1  LIG1       0.43999999999999995
     19 H          -1.3140   -0.6328   -2.3522 H       1  LIG1       0.42000000000000004
     20 H          -0.8824    1.3995   -1.3008 H       1  LIG1       0.42000000000000004
@<TRIPOS>BOND
     1    19     9    1
     2     9     4    1
     3    10    20    1
     4    10     5    1
     5    16     5    1
     6     5     4    1
     7     5     3    1
     8     4    15    1
     9     4     2    1
    10    14     3    1
    11     7     2    1
    12     7    17    1
    13     3     1    1
    14     3     8    1
    15    12     2    1
    16     2    13    1
    17    11     1    1
    18     1     6    2
    19     8    18    1
