@<TRIPOS>MOLECULE
PYNDTGFTPOZGRW-UHFFFAOYSA-N	6119249	-449.9421477999139
 15 15 0 0 0
SMALL
MULLIKEN NwChem

@<TRIPOS>ATOM
      1 C           1.4923   -1.4002    0.2933 C.2     1  LIG1       0.3200000000000003
      2 C           0.1597    0.2959    0.7819 C.3     1  LIG1       -0.1900000000000004
      3 C          -0.7015   -0.8914    0.3171 C.3     1  LIG1       0.5700000000000003
      4 C           0.0891    1.4239   -0.3257 C.2     1  LIG1       0.5999999999999996
      5 N          -1.9494   -1.1140    0.1999 N.3     1  LIG1      -0.5599999999999996
      6 N          -0.2547    2.6138   -0.1510 N.2     1  LIG1      -0.6299999999999999
      7 N           1.5003   -0.2107    0.8440 N.2     1  LIG1      -0.3200000000000003
      8 N           0.2452   -1.8655    0.0144 N.pl3   1  LIG1      -0.46999999999999975
      9 O           0.4444    0.8930   -1.5010 O.2     1  LIG1      -0.5800000000000001
     10 H           2.3803   -1.9936    0.1028 H       1  LIG1       0.29000000000000004
     11 H          -0.1535    0.7241    1.7361 H       1  LIG1          0.28
     12 H          -2.5382   -0.2875    0.3331 H       1  LIG1           0.4
     13 H          -0.4942    2.9439    0.7800 H       1  LIG1          0.37
     14 H           0.0070   -2.7701   -0.3901 H       1  LIG1       0.44999999999999996
     15 H           0.4217    1.5910   -2.1858 H       1  LIG1           0.47
@<TRIPOS>BOND
     1    15     9    1
     2     9     4    1
     3    14     8    1
     4     4     6    2
     5     4     2    1
     6     6    13    1
     7     8     1    1
     8     8     3    1
     9    10     1    1
    10     5     3    1
    11     5    12    1
    12     1     7    2
    13     3     2    1
    14     2     7    1
    15     2    11    1
