@<TRIPOS>MOLECULE
PYVRVRFVLRNJLY-MZMPXXGTSA-N	6045098	-1826.3419772945747
 78 77 0 0 0
SMALL
MULLIKEN NwChem

@<TRIPOS>ATOM
      1 C          -3.3589    7.9194    6.1214 C.3     1  LIG1      -0.45999999999999996
      2 C          -3.7722    7.2119    4.8260 C.3     1  LIG1      -0.2599999999999998
      3 C          -2.6511    7.1266    3.7766 C.3     1  LIG1      -0.2599999999999998
      4 C          -1.3929    6.3567    4.2179 C.3     1  LIG1      -0.2699999999999996
      5 C          -1.6348    4.9029    4.6613 C.3     1  LIG1      -0.2699999999999996
      6 C          -2.3291    4.0089    3.6174 C.3     1  LIG1      -0.2699999999999996
      7 C          -1.6398    3.9592    2.2424 C.3     1  LIG1      -0.28000000000000025
      8 C          -0.1687    3.4899    2.2513 C.3     1  LIG1      -0.3200000000000003
      9 C           0.0081    2.0616    2.6974 C.2     1  LIG1      -0.1299999999999999
     10 C           0.7001    1.0902    2.0849 C.2     1  LIG1      -0.11000000000000032
     11 C           1.5009    1.1729    0.8128 C.3     1  LIG1      -0.33999999999999986
     12 C           2.9849    0.7753    0.9819 C.3     1  LIG1      -0.2699999999999996
     13 C           3.2255   -0.6437    1.5350 C.3     1  LIG1      -0.2599999999999998
     14 C           2.4025   -1.7498    0.8513 C.3     1  LIG1      -0.28000000000000025
     15 C           2.5869   -1.8594   -0.6705 C.3     1  LIG1      -0.2999999999999998
     16 C           3.8859   -2.5443   -1.1213 C.3     1  LIG1      -0.28000000000000025
     17 C           3.8531   -4.0833   -0.9663 C.3     1  LIG1       -0.34999999999999964
     18 C          -1.6377    1.3041   -0.9218 C.3     1  LIG1       -0.20000000000000018
     19 C          -1.6707   -0.1433   -0.4175 C.3     1  LIG1       -0.04999999999999982
     20 C           0.6951   -5.6063   -2.1913 C.3     1  LIG1       -0.08000000000000007
     21 C          -0.7072   -3.5305   -2.8563 C.3     1  LIG1       -0.07000000000000028
     22 C           0.0171   -4.8047   -3.3099 C.3     1  LIG1       0.08999999999999986
     23 C           2.8877   -4.7265   -1.9401 C.2     1  LIG1       0.6200000000000001
     24 N          -2.3982    1.4679   -2.1847 N.3     1  LIG1        -0.79
     25 O          -0.9004   -5.6823   -3.9652 O.3     1  LIG1      -0.6600000000000001
     26 O           3.1586   -5.0652   -3.0711 O.2     1  LIG1      -0.5199999999999996
     27 O          -1.6611   -0.8120   -3.4210 O.3     1  LIG1      -0.7200000000000006
     28 O           0.7291    0.1163   -2.8277 O.2     1  LIG1      -0.6400000000000006
     29 O           1.6463   -4.8788   -1.3966 O.3     1  LIG1      -0.46000000000000085
     30 O          -0.7482   -1.0578   -1.0387 O.3     1  LIG1      -0.5999999999999996
     31 O           0.2110   -2.4198   -2.9072 O.3     1  LIG1      -0.5399999999999991
     32 P          -0.2921   -0.9306   -2.6023 P.3     1  LIG1       1.3000000000000007
     33 H          -2.5734    7.3683    6.6513 H       1  LIG1       0.15000000000000002
     34 H          -4.2088    8.0210    6.8062 H       1  LIG1          0.14
     35 H          -2.9738    8.9262    5.9138 H       1  LIG1          0.14
     36 H          -4.1378    6.2029    5.0622 H       1  LIG1          0.14
     37 H          -4.6245    7.7438    4.3814 H       1  LIG1          0.13
     38 H          -3.0578    6.6693    2.8647 H       1  LIG1          0.14
     39 H          -2.3513    8.1462    3.4957 H       1  LIG1          0.13
     40 H          -0.6718    6.3698    3.3893 H       1  LIG1          0.14
     41 H          -0.9059    6.8949    5.0417 H       1  LIG1          0.13
     42 H          -0.6703    4.4579    4.9392 H       1  LIG1          0.13
     43 H          -2.2370    4.8957    5.5792 H       1  LIG1          0.14
     44 H          -2.4143    2.9932    4.0254 H       1  LIG1          0.14
     45 H          -3.3610    4.3553    3.4707 H       1  LIG1          0.14
     46 H          -2.2213    3.2970    1.5858 H       1  LIG1       0.15000000000000002
     47 H          -1.6816    4.9553    1.7820 H       1  LIG1          0.14
     48 H           0.2512    3.6338    1.2500 H       1  LIG1       0.15000000000000002
     49 H           0.4058    4.1509    2.9169 H       1  LIG1       0.15000000000000002
     50 H          -0.4876    1.8057    3.6355 H       1  LIG1          0.13
     51 H           0.7057    0.1114    2.5662 H       1  LIG1          0.13
     52 H           1.0584    0.5091    0.0604 H       1  LIG1       0.16000000000000003
     53 H           1.4600    2.1818    0.3896 H       1  LIG1       0.15000000000000002
     54 H           3.4643    0.8680   -0.0004 H       1  LIG1          0.14
     55 H           3.4818    1.5014    1.6392 H       1  LIG1          0.13
     56 H           4.2979   -0.8668    1.4484 H       1  LIG1          0.14
     57 H           3.0065   -0.6600    2.6114 H       1  LIG1          0.14
     58 H           2.6398   -2.7117    1.3269 H       1  LIG1          0.13
     59 H           1.3368   -1.5815    1.0509 H       1  LIG1          0.14
     60 H           1.7417   -2.4157   -1.0778 H       1  LIG1       0.16000000000000003
     61 H           2.5260   -0.8683   -1.1306 H       1  LIG1       0.15000000000000002
     62 H           4.0821   -2.3115   -2.1749 H       1  LIG1       0.15000000000000002
     63 H           4.7435   -2.1620   -0.5517 H       1  LIG1       0.16000000000000003
     64 H           4.8404   -4.4990   -1.1897 H       1  LIG1       0.18000000000000005
     65 H           3.5787   -4.3587    0.0570 H       1  LIG1       0.18000000000000005
     66 H          -2.0288    1.9469   -0.1213 H       1  LIG1       0.18999999999999995
     67 H          -0.6031    1.5983   -1.1101 H       1  LIG1       0.18999999999999995
     68 H          -2.6861   -0.5521   -0.5249 H       1  LIG1       0.18000000000000005
     69 H          -1.4026   -0.1441    0.6420 H       1  LIG1       0.18000000000000005
     70 H           1.1765   -6.4777   -2.6422 H       1  LIG1       0.18000000000000005
     71 H          -0.0616   -5.9401   -1.4712 H       1  LIG1       0.18000000000000005
     72 H          -1.5337   -3.3447   -3.5478 H       1  LIG1       0.18999999999999995
     73 H          -1.1019   -3.6243   -1.8358 H       1  LIG1       0.18000000000000005
     74 H           0.7601   -4.5302   -4.0615 H       1  LIG1       0.17000000000000004
     75 H          -3.3969    1.5282   -1.9923 H       1  LIG1          0.36
     76 H          -2.1289    2.3320   -2.6508 H       1  LIG1          0.36
     77 H          -1.5666   -5.9647   -3.3166 H       1  LIG1       0.43000000000000005
     78 H          -2.0659    0.0823   -3.1696 H       1  LIG1           0.47
@<TRIPOS>BOND
     1    74    22    1
     2    25    77    1
     3    25    22    1
     4    72    21    1
     5    27    78    1
     6    27    32    1
     7    22    21    1
     8    22    20    1
     9    26    23    2
    10    31    21    1
    11    31    32    1
    12    21    73    1
    13    28    32    2
    14    76    24    1
    15    70    20    1
    16    32    30    1
    17    20    71    1
    18    20    29    1
    19    24    75    1
    20    24    18    1
    21    62    16    1
    22    23    29    1
    23    23    17    1
    24    64    17    1
    25    61    15    1
    26    16    17    1
    27    16    15    1
    28    16    63    1
    29    67    18    1
    30    60    15    1
    31    30    19    1
    32    17    65    1
    33    18    19    1
    34    18    66    1
    35    15    14    1
    36    68    19    1
    37    19    69    1
    38    54    12    1
    39    52    11    1
    40    53    11    1
    41    11    12    1
    42    11    10    1
    43    14    59    1
    44    14    58    1
    45    14    13    1
    46    12    13    1
    47    12    55    1
    48    48     8    1
    49    56    13    1
    50    13    57    1
    51    46     7    1
    52    47     7    1
    53    10    51    1
    54    10     9    2
    55     7     8    1
    56     7     6    1
    57     8     9    1
    58     8    49    1
    59     9    50    1
    60    38     3    1
    61    40     4    1
    62    45     6    1
    63    39     3    1
    64     6    44    1
    65     6     5    1
    66     3     4    1
    67     3     2    1
    68     4     5    1
    69     4    41    1
    70    37     2    1
    71     5    42    1
    72     5    43    1
    73     2    36    1
    74     2     1    1
    75    35     1    1
    76     1    33    1
    77     1    34    1
