@<TRIPOS>MOLECULE
QAOWNCQODCNURD-UHFFFAOYSA-L	6045100	-699.312666232039
 5 4 0 0 0
SMALL
MULLIKEN NwChem

@<TRIPOS>ATOM
      1 O          -1.5263   -0.0002    0.0002 O.2     1  LIG1      -0.7400000000000002
      2 O           0.5086   -1.0394    0.9953 O.3     1  LIG1      -0.7400000000000002
      3 O           0.5088   -0.3420   -1.3976 O.2     1  LIG1      -0.7400000000000002
      4 O           0.5088    1.3816    0.4021 O.3     1  LIG1      -0.7400000000000002
      5 S          -0.0000    0.0000    0.0001 S.3     1  LIG1       0.9700000000000006
@<TRIPOS>BOND
     1     3     5    2
     2     5     1    2
     3     5     4    1
     4     5     2    1
