@<TRIPOS>MOLECULE
QAQREVBBADEHPA-IEXPHMLFSA-J	11085233	-4020.731978648154
 88 90 0 0 0
SMALL
MULLIKEN NwChem

@<TRIPOS>ATOM
      1 C          11.6037    0.4828   -0.0351 C.3     1  LIG1      -0.46999999999999975
      2 C           3.0317    0.5133   -2.4522 C.3     1  LIG1      -0.5099999999999998
      3 C           2.7079   -1.9775   -2.1482 C.3     1  LIG1      -0.46999999999999975
      4 C          11.9937   -0.3882    1.1719 C.3     1  LIG1       -0.33999999999999986
      5 C           8.5354   -2.6002   -1.5064 C.3     1  LIG1       -0.33999999999999986
      6 C           7.8645   -1.2668   -1.9280 C.3     1  LIG1       -0.15000000000000036
      7 C           8.6945   -2.0308    1.3669 C.3     1  LIG1       -0.1299999999999999
      8 C           8.6407   -0.5264    1.7189 C.3     1  LIG1       -0.4299999999999997
      9 C          -4.1910    1.1496    1.6866 C.3     1  LIG1       -0.04999999999999982
     10 C           2.9465   -0.4824   -0.1470 C.3     1  LIG1       -0.07000000000000028
     11 C          -6.3320   -2.8510    1.4946 C.ar    1  LIG1       0.15000000000000036
     12 C          -7.5926   -1.0787   -2.2581 C.ar    1  LIG1       0.21999999999999975
     13 C          -5.1362    1.7026    0.6419 C.3     1  LIG1       0.07000000000000028
     14 C           9.8562   -2.4620   -0.7008 C.2     1  LIG1           0.5
     15 C          11.5690    0.1509    2.5068 C.2     1  LIG1       0.2999999999999998
     16 C          -7.5248   -2.6680   -0.8721 C.ar    1  LIG1       0.1900000000000004
     17 C          -7.3064    1.7743   -0.3654 C.3     1  LIG1       0.1299999999999999
     18 C          -6.6119    1.7218    1.0570 C.3     1  LIG1       0.13999999999999968
     19 C           4.9477   -0.8946   -1.5796 C.3     1  LIG1       0.05999999999999961
     20 C          -7.6612   -3.8309   -0.1008 C.ar    1  LIG1       0.4400000000000004
     21 C          -6.7455   -1.6323   -0.3159 C.ar    1  LIG1       0.5300000000000002
     22 C           5.6446   -1.1714   -2.9836 C.2     1  LIG1       0.4400000000000004
     23 C          -6.3505    0.8004   -1.1532 C.3     1  LIG1          0.25
     24 C           3.3982   -0.7159   -1.6006 C.3     1  LIG1       0.08999999999999986
     25 N          -8.3937   -4.9185   -0.5571 N.pl3   1  LIG1      -0.7800000000000002
     26 N           9.8749   -2.3742    0.6318 N.am    1  LIG1      -0.5700000000000003
     27 N           6.9335   -1.4532   -3.0249 N.am    1  LIG1      -0.5999999999999996
     28 N          -7.0621   -3.9164    1.0930 N.ar    1  LIG1        -0.54
     29 N          -6.1219   -1.6958    0.8715 N.ar    1  LIG1      -0.5199999999999996
     30 N          -8.0545   -2.3040   -2.0951 N.ar    1  LIG1      -0.5800000000000001
     31 N          -6.7932   -0.6123   -1.2430 N.ar    1  LIG1         -0.5
     32 O          10.9173   -2.4626   -1.3882 O.2     1  LIG1      -0.7100000000000009
     33 O          12.3337    0.5889    3.3536 O.2     1  LIG1      -0.5099999999999998
     34 O          -7.2746    2.9827   -0.9418 O.3     1  LIG1      -0.7899999999999991
     35 O           5.2625   -1.9634   -0.6596 O.3     1  LIG1      -0.6999999999999993
     36 O           4.8995   -1.1600   -4.0095 O.2     1  LIG1      -0.6799999999999997
     37 O          -8.4081    4.1265    3.4626 O.3     1  LIG1      -0.6999999999999993
     38 O          -8.7213    4.2044    0.9120 O.3     1  LIG1      -0.7799999999999994
     39 O          -9.2707    1.9936    2.1784 O.2     1  LIG1      -0.7300000000000004
     40 O          -2.6274    1.6306   -1.2030 O.3     1  LIG1      -0.6899999999999995
     41 O          -1.6362    3.1277    0.6987 O.2     1  LIG1      -0.5999999999999996
     42 O           1.4884    2.2342   -0.0524 O.3     1  LIG1      -0.6899999999999995
     43 O           0.9532    1.0081    2.1396 O.2     1  LIG1      -0.5899999999999999
     44 O          -2.8434    0.8286    1.2100 O.3     1  LIG1      -0.5399999999999991
     45 O           1.4862   -0.3140   -0.0940 O.3     1  LIG1      -0.5500000000000007
     46 O          -5.0782    0.8285   -0.5304 O.3     1  LIG1      -0.5700000000000003
     47 O          -6.8300    2.8179    1.9026 O.3     1  LIG1      -0.6500000000000004
     48 O          -0.6538    0.7866    0.0486 O.3     1  LIG1      -0.5899999999999999
     49 P          -8.4568    3.2688    2.2272 P.3     1  LIG1       1.0500000000000007
     50 P          -1.9660    1.7598    0.2477 P.3     1  LIG1       1.2100000000000009
     51 P           0.8429    0.9359    0.6705 P.3     1  LIG1       1.2300000000000004
     52 S           9.8138    0.1260    3.0138 S.3     1  LIG1      -0.010000000000001563
     53 H          11.7103   -0.1277   -0.9372 H       1  LIG1       0.16000000000000003
     54 H          10.5552    0.7873    0.0175 H       1  LIG1       0.16000000000000003
     55 H          12.2164    1.3933   -0.1034 H       1  LIG1       0.15000000000000002
     56 H           1.9400    0.6380   -2.4961 H       1  LIG1       0.15000000000000002
     57 H           3.4828    1.4274   -2.0364 H       1  LIG1       0.15000000000000002
     58 H           3.4193    0.3606   -3.4609 H       1  LIG1       0.16000000000000003
     59 H           1.6178   -1.8826   -2.0841 H       1  LIG1          0.14
     60 H           3.0184   -2.8485   -1.5597 H       1  LIG1          0.14
     61 H           3.0217   -2.1207   -3.1836 H       1  LIG1       0.15000000000000002
     62 H          11.4818   -1.3663    1.0273 H       1  LIG1       0.20999999999999996
     63 H          13.0838   -0.5114    1.2199 H       1  LIG1       0.15000000000000002
     64 H           7.7989   -3.2210   -0.9695 H       1  LIG1          0.13
     65 H           8.7916   -3.1311   -2.4284 H       1  LIG1       0.10999999999999999
     66 H           8.6842   -0.6124   -2.2761 H       1  LIG1       0.10999999999999999
     67 H           7.4529   -0.7763   -1.0263 H       1  LIG1          0.13
     68 H           8.6504   -2.5920    2.3188 H       1  LIG1       0.10999999999999999
     69 H           7.7307   -2.2211    0.8539 H       1  LIG1          0.12
     70 H           8.7437    0.0663    0.8073 H       1  LIG1       0.19999999999999996
     71 H           7.6733   -0.2689    2.1738 H       1  LIG1       0.18000000000000005
     72 H          -4.5663    0.1901    2.0427 H       1  LIG1       0.19999999999999996
     73 H          -4.1221    1.8659    2.5101 H       1  LIG1       0.19999999999999996
     74 H           3.4320    0.4067    0.2723 H       1  LIG1       0.18000000000000005
     75 H           3.1862   -1.3422    0.4798 H       1  LIG1       0.18000000000000005
     76 H          -5.8569   -2.9570    2.4680 H       1  LIG1       0.17000000000000004
     77 H          -7.8069   -0.4462   -3.1103 H       1  LIG1       0.20999999999999996
     78 H          -4.8691    2.7173    0.3252 H       1  LIG1       0.17000000000000004
     79 H          -8.3069    1.2875   -0.2777 H       1  LIG1       0.07999999999999996
     80 H          -6.8731    0.7755    1.5561 H       1  LIG1          0.13
     81 H           5.3757    0.0343   -1.1595 H       1  LIG1          0.13
     82 H          -6.2826    1.1600   -2.1843 H       1  LIG1       0.17000000000000004
     83 H          -8.7392   -5.5004    0.1966 H       1  LIG1          0.36
     84 H          -9.0970   -4.6658   -1.2414 H       1  LIG1          0.37
     85 H          -8.1856    3.8200    0.1335 H       1  LIG1       0.42000000000000004
     86 H           5.8796   -2.5337   -1.1465 H       1  LIG1       0.42000000000000004
     87 H          -3.5482    1.2492   -1.1463 H       1  LIG1          0.49
     88 H           1.5595    2.0849   -1.0110 H       1  LIG1           0.48
@<TRIPOS>BOND
     1    36    22    2
     2    58     2    1
     3    61     3    1
     4    77    12    1
     5    27    22   am
     6    27     6    1
     7    22    19    1
     8    56     2    1
     9     2    57    1
    10     2    24    1
    11    65     5    1
    12    66     6    1
    13    12    30   ar
    14    12    31   ar
    15    82    23    1
    16     3    59    1
    17     3    24    1
    18     3    60    1
    19    30    16   ar
    20     6     5    1
    21     6    67    1
    22    24    19    1
    23    24    10    1
    24    19    81    1
    25    19    35    1
    26     5    64    1
    27     5    14    1
    28    32    14    2
    29    31    23    1
    30    31    21   ar
    31    84    25    1
    32    40    87    1
    33    40    50    1
    34    23    46    1
    35    23    17    1
    36    86    35    1
    37    88    42    1
    38    34    17    1
    39    53     1    1
    40    16    21   ar
    41    16    20   ar
    42    14    26   am
    43    25    20    1
    44    25    83    1
    45    46    13    1
    46    17    79    1
    47    17    18    1
    48    21    29   ar
    49    10    45    1
    50    10    74    1
    51    10    75    1
    52    55     1    1
    53    20    28   ar
    54    45    51    1
    55    42    51    1
    56     1    54    1
    57     1     4    1
    58    48    50    1
    59    48    51    1
    60    85    38    1
    61    50    41    2
    62    50    44    1
    63    78    13    1
    64    26     7    1
    65    13    18    1
    66    13     9    1
    67    51    43    2
    68    70     8    1
    69    69     7    1
    70    29    11   ar
    71    38    49    1
    72    62     4    1
    73    18    80    1
    74    18    47    1
    75    28    11   ar
    76     4    63    1
    77     4    15    1
    78    44     9    1
    79     7     8    1
    80     7    68    1
    81    11    76    1
    82     9    72    1
    83     9    73    1
    84     8    71    1
    85     8    52    1
    86    47    49    1
    87    39    49    2
    88    49    37    1
    89    15    52    1
    90    15    33    2
