@<TRIPOS>MOLECULE
QBOLVLBSUGJHGB-WDSKDSINSA-M	11085232	-1802.598001430673
 37 36 0 0 0
SMALL
MULLIKEN NwChem

@<TRIPOS>ATOM
      1 C           3.4340   -0.1687   -0.2857 C.3     1  UNK1      -0.28000000000000025
      2 C           2.1133   -0.9459   -0.4831 C.3     1  UNK1       -0.33999999999999986
      3 CA         -3.7778   -1.5005   -0.1890 C.3     2  GLY2       -0.21999999999999975
      4 C          -2.2533    0.9207   -1.1375 C.3     1  UNK1       -0.4400000000000004
      5 C           4.2443   -0.5936    0.9545 C.3     1  UNK1       -0.05999999999999961
      6 C          -1.3482    0.3721   -0.0330 C.3     1  UNK1       -0.07000000000000028
      7 C           0.8794   -0.2673    0.1131 C.2     1  UNK1          0.54
      8 C          -4.6930   -2.7098   -0.0722 C.2     2  GLY2       0.5800000000000001
      9 C          -2.0228   -0.4994    1.0532 C.2     1  UNK1       0.5199999999999996
     10 C           5.6194    0.1145    0.9314 C.2     1  UNK1       0.5999999999999996
     11 N           3.5691   -0.2624    2.2225 N.3     1  UNK1      -0.8499999999999996
     12 N          -3.0424   -1.2697    1.0288 N.2     2  GLY2      -0.5199999999999996
     13 N          -0.2074   -0.3282   -0.6126 N.am    1  UNK1      -0.5599999999999996
     14 O           1.0069    0.2938    1.2773 O.2     1  UNK1      -0.6899999999999995
     15 O          -5.8244   -2.7696   -0.5141 O.2     2  GLY2      -0.5199999999999996
     16 OXT        -4.1017   -3.7716    0.5229 O.3     2  GLY2      -0.5700000000000003
     17 O          -1.3571   -0.4141    2.2237 O.2     1  UNK1      -0.6699999999999999
     18 O           6.4535   -0.0704    0.0683 O.2     1  UNK1      -0.5500000000000007
     19 O           5.7792    0.9639    1.9528 O.3     1  UNK1      -0.6199999999999992
     20 S          -0.6677    3.5939   -0.8607 S.3     1  UNK1      -0.19000000000000128
     21 S          -1.4028    2.1719   -2.2077 S.3     1  UNK1      -0.019999999999999574
     22 H           3.2274    0.9070   -0.2174 H       1  UNK1       0.16000000000000003
     23 H           4.0908   -0.3137   -1.1497 H       1  UNK1       0.16000000000000003
     24 H           2.2092   -1.9423   -0.0245 H       1  UNK1       0.16000000000000003
     25 H           1.9202   -1.1100   -1.5468 H       1  UNK1       0.15000000000000002
     26 HA1        -3.1256   -1.7191   -1.0525 H       2  GLY2       0.19999999999999996
     27 HA2        -4.4370   -0.6728   -0.4820 H       2  GLY2       0.18000000000000005
     28 H          -2.5163    0.1551   -1.8725 H       1  UNK1       0.20999999999999996
     29 H          -3.1676    1.3626   -0.7292 H       1  UNK1       0.19999999999999996
     30 H           4.4528   -1.6691    0.8663 H       1  UNK1       0.18000000000000005
     31 H          -1.0189    1.2551    0.5380 H       1  UNK1       0.15000000000000002
     32 H           2.5847    0.0049    2.0331 H       1  UNK1          0.37
     33 H           3.5628   -1.0615    2.8509 H       1  UNK1       0.33999999999999997
     34 HXT        -4.7754   -4.4765    0.5102 H       2  GLY2       0.43999999999999995
     35 H          -0.4501   -0.0245    2.0311 H       1  UNK1       0.43999999999999995
     36 H           4.9125    0.8383    2.4582 H       1  UNK1       0.43999999999999995
     37 H           0.4470    2.9450   -0.4402 H       1  UNK1       0.16000000000000003
@<TRIPOS>BOND
     1    21     4    1
     2    21    20    1
     3    28     4    1
     4    25     2    1
     5    23     1    1
     6     4    29    1
     7     4     6    1
     8    26     3    1
     9    20    37    1
    10    13     6    1
    11    13     7   am
    12    15     8    2
    13     2     1    1
    14     2    24    1
    15     2     7    1
    16    27     3    1
    17     1    22    1
    18     1     5    1
    19     3     8    1
    20     3    12    1
    21     8    16    1
    22     6    31    1
    23     6     9    1
    24    18    10    2
    25     7    14    2
    26    34    16    1
    27    30     5    1
    28    10     5    1
    29    10    19    1
    30     5    11    1
    31    12     9    2
    32     9    17    1
    33    19    36    1
    34    35    17    1
    35    32    11    1
    36    11    33    1
