@<TRIPOS>MOLECULE
QCHPKSFMDHPSNR-VKHMYHEASA-N	6045104	-362.95939038706877
 16 15 0 0 0
SMALL
MULLIKEN NwChem

@<TRIPOS>ATOM
      1 C           1.0722   -0.5150   -1.4263 C.3     1  LIG1      -0.45999999999999996
      2 C           1.2215    0.5859    0.8808 C.3     1  LIG1       -0.15000000000000036
      3 C           0.5943   -0.5357    0.0293 C.3     1  LIG1       -0.16000000000000014
      4 C          -0.9191   -0.4657    0.1986 C.2     1  LIG1       0.6100000000000003
      5 N           0.8471    1.9026    0.3542 N.3     1  LIG1      -0.7699999999999996
      6 O          -1.4816   -0.4511    1.2721 O.2     1  LIG1      -0.5299999999999994
      7 O          -1.5974   -0.4442   -0.9742 O.3     1  LIG1      -0.5800000000000001
      8 H           0.7502    0.4009   -1.9304 H       1  LIG1       0.16000000000000003
      9 H           0.6650   -1.3581   -1.9911 H       1  LIG1       0.16000000000000003
     10 H           2.1666   -0.5727   -1.4634 H       1  LIG1       0.16000000000000003
     11 H           0.8231    0.5016    1.8958 H       1  LIG1       0.16000000000000003
     12 H           2.3110    0.4126    0.9346 H       1  LIG1          0.14
     13 H           0.8884   -1.4888    0.4923 H       1  LIG1       0.18000000000000005
     14 H           1.0212    2.6205    1.0534 H       1  LIG1       0.32999999999999996
     15 H           1.4226    2.1401   -0.4508 H       1  LIG1       0.32999999999999996
     16 H          -2.5416   -0.3921   -0.7333 H       1  LIG1       0.43999999999999995
@<TRIPOS>BOND
     1     9     1    1
     2     8     1    1
     3    10     1    1
     4     1     3    1
     5     7    16    1
     6     7     4    1
     7    15     5    1
     8     3     4    1
     9     3    13    1
    10     3     2    1
    11     4     6    2
    12     5     2    1
    13     5    14    1
    14     2    12    1
    15     2    11    1
