@<TRIPOS>MOLECULE
QCICUPZZLIQAPA-XPWFQUROSA-K	11085221	-3552.0616512821725
 73 78 0 0 0
SMALL
MULLIKEN NwChem

@<TRIPOS>ATOM
      1 C           3.0550   -0.1658   -2.1044 C.3     1  LIG1       -0.05999999999999961
      2 C          -3.7556    0.4210    2.7928 C.3     1  LIG1       -0.05999999999999961
      3 C          10.4139   -0.5386    0.8104 C.ar    1  LIG1       0.15000000000000036
      4 C         -10.1472   -0.3966   -1.2316 C.ar    1  LIG1       0.15000000000000036
      5 C           7.2758    1.6876   -1.2022 C.ar    1  LIG1       0.21999999999999975
      6 C          -6.2875    1.2581   -0.0558 C.ar    1  LIG1       0.1900000000000004
      7 C           4.0045   -0.7970   -1.0754 C.3     1  LIG1       0.11000000000000032
      8 C          -4.4886   -0.8250    2.3335 C.3     1  LIG1       0.1200000000000001
      9 C           9.2864    1.4184   -0.5927 C.ar    1  LIG1       0.1900000000000004
     10 C          -8.1374    1.3399   -1.1101 C.ar    1  LIG1       0.1900000000000004
     11 C           3.7811   -0.3474    0.3882 C.3     1  LIG1       0.03000000000000025
     12 C          -4.0470   -1.3598    0.9527 C.3     1  LIG1       0.08000000000000007
     13 C           5.1244    0.3009    0.7917 C.3     1  LIG1       0.1200000000000001
     14 C          -5.3597   -1.9355    0.3847 C.3     1  LIG1       0.08999999999999986
     15 C          10.6535    1.4699   -0.2838 C.ar    1  LIG1       0.4500000000000002
     16 C          -9.2983    1.6537   -1.8285 C.ar    1  LIG1       0.4400000000000004
     17 C           8.5806    0.3018   -0.1066 C.ar    1  LIG1       0.5300000000000002
     18 C          -8.1139    0.0827   -0.4828 C.ar    1  LIG1          0.54
     19 C           6.1001   -0.3228   -0.2339 C.3     1  LIG1       0.2699999999999996
     20 C          -6.4445   -1.0693    1.0442 C.3     1  LIG1       0.2400000000000002
     21 N          11.4555    2.5054   -0.7249 N.pl3   1  LIG1      -0.7800000000000002
     22 N          -9.4141    2.8488   -2.5114 N.pl3   1  LIG1      -0.7800000000000002
     23 N          11.2135    0.4815    0.4315 N.ar    1  LIG1        -0.54
     24 N         -10.3159    0.7746   -1.8791 N.ar    1  LIG1      -0.5499999999999998
     25 N           9.1120   -0.7130    0.5936 N.ar    1  LIG1      -0.5300000000000002
     26 N          -9.1034   -0.8284   -0.5229 N.ar    1  LIG1        -0.54
     27 N           8.4520    2.2796   -1.2807 N.ar    1  LIG1      -0.5800000000000001
     28 N          -6.9960    2.0602   -0.8311 N.ar    1  LIG1      -0.5800000000000001
     29 N           7.2832    0.4978   -0.5108 N.ar    1  LIG1      -0.5099999999999998
     30 N          -6.9138    0.0405    0.1819 N.ar    1  LIG1      -0.5199999999999996
     31 O           3.6131   -1.4683    1.2405 O.3     1  LIG1      -0.7300000000000004
     32 O          -3.1123   -2.4011    1.0381 O.3     1  LIG1      -0.7400000000000002
     33 O           5.4784    0.0436    2.1266 O.3     1  LIG1      -0.6899999999999995
     34 O          -5.5103   -3.2730    0.8413 O.3     1  LIG1      -0.6999999999999993
     35 O           1.6546   -2.2782   -0.2842 O.3     1  LIG1      -0.7300000000000004
     36 O           0.4215   -2.0979   -2.5755 O.2     1  LIG1      -0.6600000000000001
     37 O          -2.8489    3.3240    0.4670 O.2     1  LIG1      -0.6699999999999999
     38 O          -1.7005    2.5386    2.7332 O.3     1  LIG1      -0.7100000000000009
     39 O          -1.1134   -1.0547    1.8622 O.3     1  LIG1      -0.7200000000000006
     40 O           0.8734    0.5612    1.3188 O.2     1  LIG1      -0.6500000000000004
     41 O           1.7355   -0.0643   -1.6469 O.3     1  LIG1      -0.5899999999999999
     42 O          -3.8121    1.4058    1.7767 O.3     1  LIG1      -0.5999999999999996
     43 O           5.3804   -0.4207   -1.4344 O.3     1  LIG1      -0.5500000000000007
     44 O          -5.9190   -0.5440    2.2289 O.3     1  LIG1      -0.5299999999999994
     45 O          -0.4072   -0.7099   -0.5804 O.3     1  LIG1      -0.6400000000000006
     46 O          -1.5806    1.1088    0.5426 O.3     1  LIG1      -0.6699999999999999
     47 P           0.8522   -1.4620   -1.2888 P.3     1  LIG1          1.17
     48 P          -2.3885    2.2721    1.4280 P.3     1  LIG1          1.17
     49 P          -0.4509   -0.0220    0.9480 P.3     1  LIG1       1.1600000000000001
     50 H           3.1201   -0.7258   -3.0529 H       1  LIG1       0.15000000000000002
     51 H           3.4085    0.8586   -2.2974 H       1  LIG1       0.16000000000000003
     52 H          -4.2307    0.8035    3.7111 H       1  LIG1       0.15000000000000002
     53 H          -2.7243    0.1392    3.0247 H       1  LIG1       0.17000000000000004
     54 H          10.9097   -1.3245    1.3789 H       1  LIG1       0.17000000000000004
     55 H         -10.9917   -1.0835   -1.2965 H       1  LIG1       0.17000000000000004
     56 H           6.3567    2.0474   -1.6427 H       1  LIG1       0.20999999999999996
     57 H          -5.3274    1.4928    0.4046 H       1  LIG1          0.24
     58 H           3.9335   -1.8864   -1.1003 H       1  LIG1       0.17000000000000004
     59 H          -4.3615   -1.6292    3.0717 H       1  LIG1       0.15000000000000002
     60 H           2.9263    0.3303    0.4886 H       1  LIG1       0.18999999999999995
     61 H          -3.6795   -0.5286    0.3409 H       1  LIG1       0.17000000000000004
     62 H           5.0974    1.3864    0.6178 H       1  LIG1       0.16000000000000003
     63 H          -5.4170   -1.8866   -0.7123 H       1  LIG1       0.16000000000000003
     64 H           6.4674   -1.2870    0.1438 H       1  LIG1       0.17000000000000004
     65 H          -7.3381   -1.6714    1.2410 H       1  LIG1       0.18000000000000005
     66 H          10.9504    3.3531   -0.9524 H       1  LIG1          0.37
     67 H          12.2914    2.6403   -0.1706 H       1  LIG1          0.36
     68 H          -8.7623    3.5612   -2.2045 H       1  LIG1          0.37
     69 H         -10.3660    3.1609   -2.6516 H       1  LIG1          0.36
     70 H           2.7241   -1.8301    0.9385 H       1  LIG1       0.44999999999999996
     71 H          -2.2226   -1.9581    1.3123 H       1  LIG1       0.45999999999999996
     72 H           4.8327   -0.6556    2.3781 H       1  LIG1       0.43000000000000005
     73 H          -4.5772   -3.5223    1.0320 H       1  LIG1       0.43000000000000005
@<TRIPOS>BOND
     1    50     1    1
     2    69    22    1
     3    36    47    2
     4    22    68    1
     5    22    16    1
     6    51     1    1
     7     1    41    1
     8     1     7    1
     9    24    16   ar
    10    24     4   ar
    11    16    10   ar
    12    41    47    1
    13    56     5    1
    14    43     7    1
    15    43    19    1
    16    55     4    1
    17    47    45    1
    18    47    35    1
    19    27     5   ar
    20    27     9   ar
    21     4    26   ar
    22     5    29   ar
    23    10    28   ar
    24    10    18   ar
    25    58     7    1
    26     7    11    1
    27    66    21    1
    28    28     6   ar
    29    21    15    1
    30    21    67    1
    31    63    14    1
    32     9    15   ar
    33     9    17   ar
    34    45    49    1
    35    26    18   ar
    36    29    19    1
    37    29    17   ar
    38    18    30   ar
    39    15    23   ar
    40    19    64    1
    41    19    13    1
    42    17    25   ar
    43     6    30   ar
    44     6    57    1
    45    30    20    1
    46    61    12    1
    47    14    34    1
    48    14    12    1
    49    14    20    1
    50    11    60    1
    51    11    13    1
    52    11    31    1
    53    23     3   ar
    54    37    48    2
    55    46    49    1
    56    46    48    1
    57    25     3   ar
    58    62    13    1
    59    13    33    1
    60     3    54    1
    61    34    73    1
    62    70    31    1
    63    49    40    2
    64    49    39    1
    65    12    32    1
    66    12     8    1
    67    32    71    1
    68    20    65    1
    69    20    44    1
    70    48    42    1
    71    48    38    1
    72    42     2    1
    73    33    72    1
    74    44     8    1
    75     8     2    1
    76     8    59    1
    77     2    53    1
    78     2    52    1
