@<TRIPOS>MOLECULE
QDFHPFSBQFLLSW-KQYNXXCUSA-L	11085220	-1530.1382158103133
 35 37 0 0 0
SMALL
MULLIKEN NwChem

@<TRIPOS>ATOM
      1 C          -2.2613    2.0527    1.6948 C.3     1  LIG1       -0.05999999999999961
      2 C           0.9665    2.7167   -3.6770 C.ar    1  LIG1       0.15000000000000036
      3 C           1.9086   -0.0677   -0.4674 C.ar    1  LIG1       0.23000000000000043
      4 C          -2.3889    0.9027    0.6959 C.3     1  LIG1       0.1200000000000001
      5 C           2.4549    1.2611   -2.0294 C.ar    1  LIG1       0.1900000000000004
      6 C          -2.0613   -0.4768    1.2900 C.3     1  LIG1       0.040000000000000036
      7 C          -0.5626   -0.6316    0.8977 C.3     1  LIG1       0.1299999999999999
      8 C           3.0624    2.0939   -2.9780 C.ar    1  LIG1       0.4400000000000004
      9 C           1.0464    1.2636   -2.0008 C.ar    1  LIG1          0.54
     10 C          -0.6142    0.0050   -0.4952 C.3     1  LIG1       0.3099999999999996
     11 N           4.4403    2.1452   -3.1109 N.pl3   1  LIG1      -0.7800000000000002
     12 N           2.3061    2.8372   -3.8020 N.ar    1  LIG1        -0.54
     13 N           0.2592    1.9741   -2.8281 N.ar    1  LIG1        -0.54
     14 N           2.9792    0.4212   -1.0667 N.ar    1  LIG1      -0.5899999999999999
     15 N           0.7146    0.4117   -0.9734 N.ar    1  LIG1      -0.5499999999999998
     16 O          -3.2579    1.9909    2.7162 O.3     1  LIG1      -0.6699999999999999
     17 O          -2.8641   -1.4622    0.7105 O.3     1  LIG1        -0.75
     18 O           0.7340   -3.9569    2.2401 O.3     1  LIG1      -0.7200000000000006
     19 O          -0.2312   -1.8330    3.4477 O.3     1  LIG1      -0.7699999999999996
     20 O          -1.7943   -3.3517    2.0411 O.2     1  LIG1      -0.7899999999999991
     21 O          -1.4358    1.1544   -0.3746 O.3     1  LIG1      -0.5500000000000007
     22 O          -0.0265   -1.8981    0.8524 O.3     1  LIG1      -0.6899999999999995
     23 P          -0.3374   -2.8934    2.3519 P.3     1  LIG1           1.0
     24 H          -2.4021    3.0114    1.1810 H       1  LIG1       0.16000000000000003
     25 H          -1.2459    2.0453    2.1212 H       1  LIG1       0.15000000000000002
     26 H           0.3857    3.3218   -4.3736 H       1  LIG1       0.16000000000000003
     27 H           1.8848   -0.8189    0.3156 H       1  LIG1       0.21999999999999997
     28 H          -3.4019    0.8896    0.2740 H       1  LIG1       0.15000000000000002
     29 H          -2.1141   -0.4952    2.3934 H       1  LIG1          0.14
     30 H           0.0127    0.0500    1.5573 H       1  LIG1          0.12
     31 H          -1.0364   -0.7093   -1.2115 H       1  LIG1       0.16000000000000003
     32 H           4.7797    3.0095   -3.5136 H       1  LIG1          0.36
     33 H           4.9393    1.8336   -2.2864 H       1  LIG1          0.37
     34 H          -3.1686    1.1038    3.1048 H       1  LIG1       0.43000000000000005
     35 H          -2.5030   -2.3312    1.1795 H       1  LIG1       0.43999999999999995
@<TRIPOS>BOND
     1    26     2    1
     2    12     2   ar
     3    12     8   ar
     4     2    13   ar
     5    32    11    1
     6    11     8    1
     7    11    33    1
     8     8     5   ar
     9    13     9   ar
    10     5     9   ar
    11     5    14   ar
    12     9    15   ar
    13    31    10    1
    14    14     3   ar
    15    15    10    1
    16    15     3   ar
    17    10    21    1
    18    10     7    1
    19     3    27    1
    20    21     4    1
    21    28     4    1
    22     4     6    1
    23     4     1    1
    24    17    35    1
    25    17     6    1
    26    22     7    1
    27    22    23    1
    28     7     6    1
    29     7    30    1
    30    24     1    1
    31     6    29    1
    32     1    25    1
    33     1    16    1
    34    20    23    2
    35    18    23    1
    36    23    19    1
    37    16    34    1
