@<TRIPOS>MOLECULE
QDZNKMGEHAHOTA-UHFFFAOYSA-M	6045107	-975.8160983842615
 28 27 0 0 0
SMALL
MULLIKEN NwChem

@<TRIPOS>ATOM
      1 C          -0.7248   -3.8369   -0.7951 C.3     1  LIG1      -0.5999999999999996
      2 C           0.3376   -0.4469    0.0905 C.3     1  LIG1      -0.28000000000000025
      3 C          -1.1951   -0.4172   -0.0349 C.3     1  LIG1      -0.28000000000000025
      4 C           1.0775    0.7104   -0.6033 C.3     1  LIG1      -0.2699999999999996
      5 C          -1.7356   -0.3742   -1.4717 C.3     1  LIG1      -0.2599999999999998
      6 C           0.5628    2.1103   -0.2047 C.3     1  LIG1       -0.3600000000000003
      7 C          -1.3116   -1.5305   -2.3865 C.3     1  LIG1      -0.41999999999999993
      8 C           0.5002    2.2871    1.3180 C.2     1  LIG1       0.3899999999999997
      9 C           1.8662    2.2339    2.0276 C.2     1  LIG1       0.4800000000000004
     10 O          -0.5859    2.4151    1.8778 O.2     1  LIG1      -0.5399999999999991
     11 O           2.2374    1.0609    2.2993 O.co2   1  LIG1      -0.6300000000000008
     12 O           2.4372    3.3358    2.1757 O.co2   1  LIG1      -0.6500000000000004
     13 S          -1.9842   -3.1977   -1.9598 S.3     1  LIG1      -0.010000000000001563
     14 H          -0.9729   -4.8862   -0.6076 H       1  LIG1       0.18999999999999995
     15 H          -0.7265   -3.2937    0.1518 H       1  LIG1       0.19999999999999996
     16 H           0.2745   -3.7853   -1.2386 H       1  LIG1       0.19999999999999996
     17 H           0.6148   -0.4046    1.1501 H       1  LIG1          0.14
     18 H           0.7346   -1.3963   -0.2983 H       1  LIG1          0.14
     19 H          -1.5671    0.4624    0.5034 H       1  LIG1          0.14
     20 H          -1.6228   -1.2890    0.4797 H       1  LIG1          0.14
     21 H           2.1324    0.6380   -0.3203 H       1  LIG1          0.14
     22 H           1.0224    0.6077   -1.6985 H       1  LIG1          0.14
     23 H          -1.4006    0.5549   -1.9555 H       1  LIG1       0.15000000000000002
     24 H          -2.8327   -0.3328   -1.4487 H       1  LIG1          0.14
     25 H           1.2450    2.8701   -0.6096 H       1  LIG1       0.16000000000000003
     26 H          -0.4408    2.2985   -0.6071 H       1  LIG1       0.15000000000000002
     27 H          -0.2207   -1.6142   -2.4457 H       1  LIG1       0.18999999999999995
     28 H          -1.6729   -1.3494   -3.4057 H       1  LIG1       0.18999999999999995
@<TRIPOS>BOND
     1    28     7    1
     2    27     7    1
     3     7    13    1
     4     7     5    1
     5    13     1    1
     6    23     5    1
     7    22     4    1
     8     5    24    1
     9     5     3    1
    10    16     1    1
    11     1    14    1
    12     1    15    1
    13    25     6    1
    14    26     6    1
    15     4    21    1
    16     4     6    1
    17     4     2    1
    18    18     2    1
    19     6     8    1
    20     3     2    1
    21     3    20    1
    22     3    19    1
    23     2    17    1
    24     8    10    2
    25     8     9    1
    26     9    12   ar
    27     9    11   ar
