@<TRIPOS>MOLECULE
QEFRNWWLZKMPFJ-ZXPFJRLXSA-N	6045109	-875.6077771733434
 21 20 0 0 0
SMALL
MULLIKEN NwChem

@<TRIPOS>ATOM
      1 C          -0.2918   -1.9116    1.3599 C.3     1  LIG1      -0.6600000000000001
      2 C           0.3174    0.2491   -1.2044 C.3     1  LIG1      -0.28000000000000025
      3 C           1.3494   -0.2013   -0.1670 C.3     1  LIG1       -0.4900000000000002
      4 CA         -1.0346    0.7885   -0.6818 C.3     1  LIG1       -0.05999999999999961
      5 C          -0.7943    1.9497    0.2842 C.2     1  LIG1       0.5800000000000001
      6 N          -1.8462    1.1825   -1.8292 N.3     1  LIG1        -0.75
      7 O          -0.7086    3.1130   -0.0402 O.2     1  LIG1      -0.5099999999999998
      8 OXT        -0.6617    1.5406    1.5765 O.3     1  LIG1      -0.5800000000000001
      9 O           0.8516   -2.7638   -0.9371 O.3     1  LIG1      -0.7200000000000006
     10 S           1.2234   -1.9960    0.3153 S.3     1  LIG1      0.7599999999999998
     11 H          -0.3330   -2.8359    1.9417 H       1  LIG1       0.20999999999999996
     12 H          -1.1568   -1.8706    0.6933 H       1  LIG1       0.20999999999999996
     13 H          -0.2671   -1.0416    2.0211 H       1  LIG1       0.20999999999999996
     14 H           0.7662    1.0414   -1.8177 H       1  LIG1       0.18000000000000005
     15 H           0.1020   -0.5904   -1.8756 H       1  LIG1       0.17000000000000004
     16 H           1.3503    0.3864    0.7557 H       1  LIG1       0.20999999999999996
     17 H           2.3515   -0.1419   -0.6040 H       1  LIG1       0.20999999999999996
     18 HA         -1.5635    0.0014   -0.1400 H       1  LIG1       0.18000000000000005
     19 H1         -2.7811    1.4409   -1.5163 H       1  LIG1       0.33999999999999997
     20 H2         -1.4476    2.0329   -2.2284 H       1  LIG1       0.31999999999999995
     21 HXT        -0.4885    2.3436    2.1053 H       1  LIG1       0.44999999999999996
@<TRIPOS>BOND
     1    20     6    1
     2    15     2    1
     3     6    19    1
     4     6     4    1
     5    14     2    1
     6     2     4    1
     7     2     3    1
     8     9    10    1
     9     4    18    1
    10     4     5    1
    11    17     3    1
    12     3    10    1
    13     3    16    1
    14     7     5    2
    15     5     8    1
    16    10     1    1
    17    12     1    1
    18     1    11    1
    19     1    13    1
    20     8    21    1
