@<TRIPOS>MOLECULE
QETLKNDKQOXZRP-XTGBIJOFSA-N	6045110	-1131.24610887221
 74 77 0 0 0
SMALL
MULLIKEN NwChem

@<TRIPOS>ATOM
      1 C          -5.7391    1.8682    0.9446 C.3     1  LIG1      -0.45999999999999996
      2 C          -5.7553   -0.2103    2.3771 C.3     1  LIG1      -0.45999999999999996
      3 C          -3.8603   -2.3666   -2.5245 C.3     1  LIG1      -0.46999999999999975
      4 C           4.2741   -1.4507    0.2891 C.3     1  LIG1      -0.4800000000000004
      5 C          -1.4726    0.0801    0.4213 C.3     1  LIG1      -0.4900000000000002
      6 C          -5.5681    0.0174   -1.5496 C.3     1  LIG1      -0.28000000000000025
      7 C          -5.9355   -0.4423   -0.1292 C.3     1  LIG1      -0.2599999999999998
      8 C          -4.0614    0.0749   -1.8727 C.3     1  LIG1      -0.28000000000000025
      9 C           3.9526    1.4202   -0.8779 C.3     1  LIG1      -0.28000000000000025
     10 C           2.5085    1.4287   -1.3893 C.3     1  LIG1      -0.33999999999999986
     11 C          -1.3173   -0.2844   -3.1440 C.3     1  LIG1      -0.29000000000000004
     12 C           0.1832   -0.0708   -2.9245 C.3     1  LIG1      -0.29000000000000004
     13 C           4.6477   -0.2661    3.1364 C.3     1  LIG1      -0.29000000000000004
     14 C           1.0834   -1.5198    0.7697 C.3     1  LIG1      -0.3600000000000003
     15 C           3.3008   -0.4950    2.4257 C.3     1  LIG1      -0.3099999999999996
     16 C          -0.0322   -1.8839   -0.2079 C.3     1  LIG1      -0.29000000000000004
     17 C           5.3384    1.3105    1.2765 C.3     1  LIG1      -0.29000000000000004
     18 C          -5.3413    0.3876    1.0251 C.3     1  LIG1      -0.07000000000000028
     19 C          -3.2752   -1.2367   -1.6561 C.3     1  LIG1      -0.07000000000000028
     20 C           3.9709    1.0929    0.6136 C.3     1  LIG1      -0.11000000000000032
     21 C           5.2728    1.0963    2.7977 C.3     1  LIG1       0.1299999999999999
     22 C           1.6216    0.3467   -0.7985 C.2     1  LIG1      0.08999999999999986
     23 C          -1.7455   -1.1203   -1.9179 C.3     1  LIG1      -0.11000000000000032
     24 C           0.2403    0.2988   -1.4245 C.3     1  LIG1      -0.17999999999999972
     25 C           1.9999   -0.4379    0.2306 C.2     1  LIG1      0.08000000000000007
     26 C           3.3870   -0.3247    0.8823 C.3     1  LIG1      0.04999999999999982
     27 C          -0.7897   -0.6521   -0.7432 C.3     1  LIG1      0.1200000000000001
     28 O           4.5768    2.1682    3.4453 O.3     1  LIG1      -0.6899999999999995
     29 H          -6.8316    1.9791    0.9566 H       1  LIG1          0.14
     30 H          -5.3651    2.3451    0.0319 H       1  LIG1       0.15000000000000002
     31 H          -5.3382    2.4282    1.7979 H       1  LIG1          0.14
     32 H          -6.8455   -0.1735    2.5026 H       1  LIG1          0.14
     33 H          -5.4468   -1.2593    2.4616 H       1  LIG1          0.14
     34 H          -5.3053    0.3414    3.2110 H       1  LIG1          0.14
     35 H          -3.7790   -2.1234   -3.5919 H       1  LIG1          0.14
     36 H          -3.3258   -3.3085   -2.3554 H       1  LIG1          0.14
     37 H          -4.9177   -2.5463   -2.3049 H       1  LIG1       0.15000000000000002
     38 H           5.3007   -1.4237    0.6661 H       1  LIG1       0.15000000000000002
     39 H           3.8608   -2.4327    0.5445 H       1  LIG1       0.15000000000000002
     40 H           4.3134   -1.3888   -0.8018 H       1  LIG1       0.15000000000000002
     41 H          -2.0751    0.9222    0.0692 H       1  LIG1       0.15000000000000002
     42 H          -2.1215   -0.5851    1.0023 H       1  LIG1       0.15000000000000002
     43 H          -0.7200    0.4892    1.1040 H       1  LIG1          0.14
     44 H          -6.0698   -0.6449   -2.2663 H       1  LIG1          0.13
     45 H          -5.9915    1.0139   -1.7311 H       1  LIG1          0.13
     46 H          -5.6325   -1.4907    0.0022 H       1  LIG1          0.13
     47 H          -7.0319   -0.4341   -0.0343 H       1  LIG1          0.12
     48 H          -3.9622    0.3733   -2.9246 H       1  LIG1          0.13
     49 H          -3.6013    0.8815   -1.2903 H       1  LIG1          0.14
     50 H           4.4214    2.3957   -1.0598 H       1  LIG1          0.13
     51 H           4.5502    0.6839   -1.4297 H       1  LIG1          0.14
     52 H           2.0462    2.4042   -1.1657 H       1  LIG1          0.14
     53 H           2.5003    1.3532   -2.4844 H       1  LIG1       0.15000000000000002
     54 H          -1.8143    0.6933   -3.1493 H       1  LIG1          0.14
     55 H          -1.5580   -0.7764   -4.0931 H       1  LIG1          0.13
     56 H           0.7412   -0.9992   -3.1067 H       1  LIG1          0.13
     57 H           0.6061    0.7016   -3.5748 H       1  LIG1          0.14
     58 H           4.5114   -0.3281    4.2223 H       1  LIG1          0.14
     59 H           5.3522   -1.0607    2.8596 H       1  LIG1       0.15000000000000002
     60 H           1.6660   -2.4233    0.9915 H       1  LIG1       0.15000000000000002
     61 H           0.6620   -1.2085    1.7365 H       1  LIG1       0.15000000000000002
     62 H           2.5546    0.2139    2.8157 H       1  LIG1          0.14
     63 H           2.9279   -1.4918    2.6857 H       1  LIG1          0.14
     64 H          -0.7412   -2.5823    0.2583 H       1  LIG1          0.13
     65 H           0.4195   -2.4137   -1.0571 H       1  LIG1          0.13
     66 H           5.6820    2.3343    1.0852 H       1  LIG1          0.13
     67 H           6.0870    0.6364    0.8401 H       1  LIG1          0.14
     68 H          -4.2474    0.3305    0.9586 H       1  LIG1          0.14
     69 H          -3.4008   -1.5410   -0.6084 H       1  LIG1          0.13
     70 H           3.2677    1.8012    1.0857 H       1  LIG1       0.10999999999999999
     71 H           6.2833    1.1474    3.2182 H       1  LIG1          0.13
     72 H          -1.4230   -2.1458   -2.1421 H       1  LIG1          0.12
     73 H          -0.1655    1.3233   -1.3556 H       1  LIG1          0.13
     74 H           3.6565    2.1509    3.1417 H       1  LIG1       0.42000000000000004
@<TRIPOS>BOND
     1    55    11    1
     2    35     3    1
     3    57    12    1
     4    54    11    1
     5    11    12    1
     6    11    23    1
     7    56    12    1
     8    48     8    1
     9    12    24    1
    10     3    36    1
    11     3    37    1
    12     3    19    1
    13    53    10    1
    14    44     6    1
    15    72    23    1
    16    23    19    1
    17    23    27    1
    18     8    19    1
    19     8     6    1
    20     8    49    1
    21    45     6    1
    22    19    69    1
    23     6     7    1
    24    51     9    1
    25    24    73    1
    26    24    22    1
    27    24    27    1
    28    10    52    1
    29    10     9    1
    30    10    22    1
    31    50     9    1
    32    65    16    1
    33     9    20    1
    34    40     4    1
    35    22    25    2
    36    27    16    1
    37    27     5    1
    38    16    64    1
    39    16    14    1
    40     7    47    1
    41     7    46    1
    42     7    18    1
    43    30     1    1
    44    41     5    1
    45    25    14    1
    46    25    26    1
    47     4    39    1
    48     4    38    1
    49     4    26    1
    50     5    42    1
    51     5    43    1
    52    20    26    1
    53    20    70    1
    54    20    17    1
    55    14    60    1
    56    14    61    1
    57    67    17    1
    58    26    15    1
    59     1    29    1
    60     1    18    1
    61     1    31    1
    62    68    18    1
    63    18     2    1
    64    66    17    1
    65    17    21    1
    66     2    33    1
    67     2    32    1
    68     2    34    1
    69    15    63    1
    70    15    62    1
    71    15    13    1
    72    21    13    1
    73    21    71    1
    74    21    28    1
    75    59    13    1
    76    13    58    1
    77    74    28    1
