@<TRIPOS>MOLECULE
QEWYKACRFQMRMB-UHFFFAOYSA-M	6045111	-327.82092894588214
 7 6 0 0 0
SMALL
MULLIKEN NwChem

@<TRIPOS>ATOM
      1 C           0.4243    0.8678   -0.0472 C.3     1  LIG1       -0.07000000000000028
      2 C          -0.0914   -0.5813   -0.3272 C.2     1  LIG1       0.4800000000000004
      3 F           0.0186    1.4213    1.1819 F       1  LIG1      -0.34999999999999964
      4 O          -0.8056   -1.1203    0.5428 O.co2   1  LIG1      -0.6600000000000001
      5 O           0.3184   -0.9926   -1.4440 O.co2   1  LIG1      -0.6699999999999999
      6 H           0.0749    1.5362   -0.8485 H       1  LIG1          0.14
      7 H           1.5246    0.8701   -0.0697 H       1  LIG1           0.14
@<TRIPOS>BOND
     1     5     2   ar
     2     6     1    1
     3     2     1    1
     4     2     4   ar
     5     7     1    1
     6     1     3    1
