@<TRIPOS>MOLECULE
QGWNDRXFNXRZMB-UUOKFMHZSA-K	11085217	-2172.6160025361614
 40 42 0 0 0
SMALL
MULLIKEN NwChem

@<TRIPOS>ATOM
      1 C           1.0091    0.5720   -0.7912 C.3     1  LIG1       -0.07000000000000028
      2 C          -3.9734   -2.3925    0.3191 C.ar    1  LIG1       0.17999999999999972
      3 C           0.1697   -0.1555    0.2658 C.3     1  LIG1       0.09999999999999964
      4 C          -5.4019   -0.8622   -0.1659 C.ar    1  LIG1       0.08000000000000007
      5 C           0.4258   -1.6791    0.3394 C.3     1  LIG1       0.11000000000000032
      6 C          -1.0037   -2.2771    0.5799 C.3     1  LIG1       0.07000000000000028
      7 C          -4.1832   -0.2286   -0.0251 C.ar    1  LIG1       0.5999999999999996
      8 C          -6.5975   -0.0485   -0.4910 C.ar    1  LIG1       0.4800000000000004
      9 C          -1.8832   -1.0142    0.7185 C.3     1  LIG1       0.3200000000000003
     10 C          -5.1592    1.8908   -0.5273 C.ar    1  LIG1       0.5700000000000003
     11 N          -4.8904    3.1567   -0.7278 N.pl3   1  LIG1      -0.8099999999999996
     12 N          -5.2463   -2.2263    0.0614 N.ar    1  LIG1      -0.5800000000000001
     13 N          -4.0205    1.1165   -0.1357 N.ar    1  LIG1      -0.7300000000000004
     14 N          -6.3789    1.2983   -0.6462 N.ar    1  LIG1      -0.6699999999999999
     15 N          -3.2464   -1.1966    0.2650 N.ar    1  LIG1      -0.5499999999999998
     16 O           1.2492   -2.0800    1.4043 O.3     1  LIG1      -0.7400000000000002
     17 O          -1.0378   -3.1119    1.7155 O.3     1  LIG1      -0.6999999999999993
     18 O          -7.7263   -0.5647   -0.6112 O.2     1  LIG1      -0.6699999999999999
     19 O           6.8529    1.1999    0.8939 O.3     1  LIG1      -0.6899999999999995
     20 O           5.5506    2.2952   -1.0761 O.3     1  LIG1        -0.75
     21 O           6.8843    0.1516   -1.5212 O.2     1  LIG1      -0.6699999999999999
     22 O           3.3181    2.1596    0.5040 O.2     1  LIG1      -0.7100000000000009
     23 O           2.8696   -0.1171    1.7027 O.3     1  LIG1      -0.7100000000000009
     24 O           2.3528    0.1285   -0.7959 O.3     1  LIG1      -0.5800000000000001
     25 O          -1.2353   -0.0264   -0.0680 O.3     1  LIG1      -0.5500000000000007
     26 O           4.7276    0.0599   -0.0926 O.3     1  LIG1      -0.6500000000000004
     27 P           6.1988    0.9236   -0.4315 P.3     1  LIG1       1.0600000000000005
     28 P           3.3459    0.6465    0.4675 P.3     1  LIG1       1.1400000000000006
     29 H           0.9518    1.6585   -0.6440 H       1  LIG1       0.16000000000000003
     30 H           0.5843    0.3294   -1.7746 H       1  LIG1       0.17000000000000004
     31 H          -3.4833   -3.3186    0.5854 H       1  LIG1       0.19999999999999996
     32 H           0.3515    0.2676    1.2625 H       1  LIG1       0.16000000000000003
     33 H           0.8306   -2.0270   -0.6214 H       1  LIG1       0.15000000000000002
     34 H          -1.3389   -2.8376   -0.3019 H       1  LIG1       0.16000000000000003
     35 H          -1.8828   -0.7077    1.7792 H       1  LIG1       0.17000000000000004
     36 H          -5.7854    3.5767   -0.9957 H       1  LIG1          0.26
     37 H          -3.1022    1.5296   -0.2227 H       1  LIG1          0.36
     38 H           1.9644   -1.3537    1.5479 H       1  LIG1          0.47
     39 H          -0.1474   -2.9474    2.1098 H       1  LIG1       0.43000000000000005
     40 H           4.7701    2.5308   -0.5127 H       1  LIG1       0.44999999999999996
@<TRIPOS>BOND
     1    30     1    1
     2    21    27    2
     3    20    40    1
     4    20    27    1
     5    36    11    1
     6    24     1    1
     7    24    28    1
     8     1    29    1
     9     1     3    1
    10    11    10    1
    11    14    10   ar
    12    14     8   ar
    13    33     5    1
    14    18     8    2
    15    10    13   ar
    16     8     4   ar
    17    27    26    1
    18    27    19    1
    19    34     6    1
    20    37    13    1
    21     4     7   ar
    22     4    12   ar
    23    13     7   ar
    24    26    28    1
    25    25     3    1
    26    25     9    1
    27     7    15   ar
    28    12     2   ar
    29    15     2   ar
    30    15     9    1
    31     3     5    1
    32     3    32    1
    33     2    31    1
    34     5     6    1
    35     5    16    1
    36    28    22    2
    37    28    23    1
    38     6     9    1
    39     6    17    1
    40     9    35    1
    41    16    38    1
    42    17    39    1
