@<TRIPOS>MOLECULE
QGZKDVFQNNGYKY-UHFFFAOYSA-O	6045116	-56.99318636172121
 5 4 0 0 0
SMALL
MULLIKEN NwChem

@<TRIPOS>ATOM
      1 N          -0.0000    0.0000    0.0000 N.4     1  LIG1       -0.8200000000000003
      2 H          -0.3432   -0.9300   -0.2781 H       1  LIG1      0.44999999999999996
      3 H          -0.3432    0.2243    0.9444 H       1  LIG1      0.44999999999999996
      4 H          -0.3432    0.7058   -0.6664 H       1  LIG1      0.45999999999999996
      5 H           1.0295   -0.0000    0.0000 H       1  LIG1      0.44999999999999996
@<TRIPOS>BOND
     1     4     1    1
     2     2     1    1
     3     1     5    1
     4     1     3    1
