@<TRIPOS>MOLECULE
QGZKDVFQNNGYKY-UHFFFAOYSA-N	6045115	-56.53983198855025
 4 3 0 0 0
SMALL
MULLIKEN NwChem

@<TRIPOS>ATOM
      1 N          -0.0428   -0.0457   -0.1124 N.3     1  LIG1      -0.9699999999999998
      2 H          -0.3529   -0.5982    0.6864 H       1  LIG1       0.31999999999999995
      3 H          -0.3529    0.9075    0.0732 H       1  LIG1       0.31999999999999995
      4 H           0.9747   -0.0224   -0.0550 H       1  LIG1       0.31999999999999995
@<TRIPOS>BOND
     1     1     4    1
     2     1     3    1
     3     1     2    1
