@<TRIPOS>MOLECULE
QHHKKMYHDBRONY-VKBDFPRVSA-J	11168961	-4135.311038033103
 92 94 0 0 0
SMALL
MULLIKEN NwChem

@<TRIPOS>ATOM
      1 C          12.0365    0.9092    1.4112 C.3     1  LIG1      -0.46999999999999975
      2 C           3.8892    0.8312   -1.2280 C.3     1  LIG1      -0.4900000000000002
      3 C           2.3046    2.7168   -0.7045 C.3     1  LIG1      -0.45999999999999996
      4 C           7.2680    0.2139    0.5660 C.3     1  LIG1       -0.3700000000000001
      5 C           6.1932    0.7528    1.5231 C.3     1  LIG1       -0.13999999999999968
      6 C           8.9891    0.4592   -1.7695 C.3     1  LIG1       -0.13999999999999968
      7 C           9.2964   -1.0682   -1.7759 C.3     1  LIG1       -0.41999999999999993
      8 C          13.1063    0.1896   -0.8423 C.3     1  LIG1       -0.3600000000000003
      9 C          -4.1609   -0.7932    1.2539 C.3     1  LIG1       -0.08999999999999986
     10 C           1.5307    0.3294   -0.6209 C.3     1  LIG1       -0.08000000000000007
     11 C          -9.6600    3.2366    1.1351 C.ar    1  LIG1       0.15000000000000036
     12 C          -7.8745    0.3076   -1.5337 C.ar    1  LIG1       0.21999999999999975
     13 C          12.6025    1.3916    0.0685 C.3     1  LIG1       0.16000000000000014
     14 C          -5.5376   -1.4495    1.2005 C.3     1  LIG1       0.13999999999999968
     15 C           8.5558    1.0822    0.5442 C.2     1  LIG1       0.5599999999999996
     16 C          12.0043   -0.3474   -1.7266 C.2     1  LIG1       0.29000000000000004
     17 C          -8.8135    2.1719   -1.1462 C.ar    1  LIG1       0.20000000000000018
     18 C          -7.5686   -2.1375    0.1756 C.3     1  LIG1       0.09999999999999964
     19 C          -6.0159   -2.0624   -0.1139 C.3     1  LIG1       0.1200000000000001
     20 C           3.2188    1.3113    1.1593 C.3     1  LIG1       0.040000000000000036
     21 C          -9.3867    3.4481   -1.1348 C.ar    1  LIG1       0.4299999999999997
     22 C          -8.7016    1.5223    0.0992 C.ar    1  LIG1       0.5300000000000002
     23 C           3.8957   -0.0011    1.6067 C.2     1  LIG1       0.46999999999999975
     24 C          -7.7332   -0.7338    0.8261 C.3     1  LIG1       0.2599999999999998
     25 C           2.7184    1.2829   -0.3323 C.3     1  LIG1       0.07000000000000028
     26 N          -9.5571    4.1734   -2.3093 N.pl3   1  LIG1      -0.7800000000000002
     27 N           9.3097    1.1743   -0.5658 N.am    1  LIG1      -0.6100000000000003
     28 N           5.1462   -0.2285    1.7392 N.2     1  LIG1         -0.5
     29 N          -9.8091    3.9869    0.0212 N.ar    1  LIG1        -0.54
     30 N          -9.1313    2.0225    1.2718 N.ar    1  LIG1        -0.54
     31 N          -8.2891    1.3968   -2.1600 N.ar    1  LIG1      -0.5800000000000001
     32 N          -8.0932    0.3227   -0.1679 N.ar    1  LIG1      -0.5199999999999996
     33 O          11.7459    2.2452   -0.6151 O.3     1  LIG1      -0.7400000000000002
     34 O           8.8720    1.6568    1.6106 O.2     1  LIG1      -0.6799999999999997
     35 O          11.8527    0.0070   -2.8784 O.2     1  LIG1      -0.4800000000000004
     36 O          -7.9049   -3.1269    1.0316 O.3     1  LIG1      -0.8100000000000005
     37 O           2.2582    1.7678    2.0936 O.3     1  LIG1      -0.7100000000000009
     38 O           3.0688   -1.0413    1.8650 O.2     1  LIG1      -0.6799999999999997
     39 O          -7.3396   -4.9295   -0.7234 O.3     1  LIG1      -0.7799999999999994
     40 O          -5.1756   -5.2570   -2.0845 O.3     1  LIG1      -0.6899999999999995
     41 O          -6.7672   -3.2256   -2.6127 O.2     1  LIG1      -0.7200000000000006
     42 O          -2.8693   -2.5757   -0.7528 O.3     1  LIG1      -0.7100000000000009
     43 O          -1.4165   -3.5553    1.2296 O.2     1  LIG1      -0.5899999999999999
     44 O           0.4844   -0.2882    2.0518 O.3     1  LIG1      -0.7300000000000004
     45 O          -1.6835    1.0619    1.4104 O.2     1  LIG1      -0.6300000000000008
     46 O          -3.1740   -1.7645    1.6625 O.3     1  LIG1      -0.5600000000000005
     47 O           0.2744    0.8636   -0.2076 O.3     1  LIG1      -0.5600000000000005
     48 O          -6.5093   -0.3890    1.4432 O.3     1  LIG1      -0.5500000000000007
     49 O          -5.3973   -3.3018   -0.4046 O.3     1  LIG1      -0.6899999999999995
     50 O          -1.1045   -1.1758    0.2036 O.3     1  LIG1      -0.6400000000000006
     51 P          -6.1966   -4.2477   -1.6477 P.3     1  LIG1       1.0999999999999996
     52 P          -2.1028   -2.3889    0.6293 P.3     1  LIG1       1.1999999999999993
     53 P          -0.5592    0.1653    1.0283 P.3     1  LIG1       1.1899999999999995
     54 S          10.8734   -1.5076   -0.9185 S.3     1  LIG1      0.03999999999999915
     55 H          11.6937    1.7753    1.9833 H       1  LIG1          0.13
     56 H          11.1605    0.2758    1.2697 H       1  LIG1       0.18000000000000005
     57 H          12.7979    0.3592    1.9860 H       1  LIG1          0.13
     58 H           3.6237    0.9373   -2.2882 H       1  LIG1       0.16000000000000003
     59 H           4.7845    1.4362   -1.0432 H       1  LIG1       0.17000000000000004
     60 H           4.1580   -0.2150   -1.0455 H       1  LIG1       0.16000000000000003
     61 H           1.5279    3.0679   -0.0232 H       1  LIG1       0.15000000000000002
     62 H           3.1677    3.3943   -0.6434 H       1  LIG1       0.15000000000000002
     63 H           1.9099    2.7537   -1.7285 H       1  LIG1       0.15000000000000002
     64 H           6.8280    0.0834   -0.4299 H       1  LIG1       0.15000000000000002
     65 H           7.5466   -0.7937    0.9083 H       1  LIG1       0.15000000000000002
     66 H           6.6921    0.9518    2.4791 H       1  LIG1          0.14
     67 H           5.8572    1.7332    1.1463 H       1  LIG1          0.14
     68 H           7.9292    0.5312   -2.0800 H       1  LIG1          0.14
     69 H           9.5767    0.9019   -2.5816 H       1  LIG1          0.14
     70 H           9.3170   -1.4612   -2.7988 H       1  LIG1       0.18000000000000005
     71 H           8.5434   -1.6174   -1.2020 H       1  LIG1       0.18999999999999995
     72 H          13.5282   -0.6046   -0.2111 H       1  LIG1       0.17000000000000004
     73 H          13.8834    0.5618   -1.5198 H       1  LIG1       0.16000000000000003
     74 H          -4.1448   -0.0060    2.0104 H       1  LIG1       0.18999999999999995
     75 H          -3.8888   -0.3359    0.2988 H       1  LIG1       0.18999999999999995
     76 H           1.7146   -0.6562   -0.1845 H       1  LIG1       0.16000000000000003
     77 H           1.4647    0.1964   -1.7102 H       1  LIG1       0.16000000000000003
     78 H         -10.0216    3.7022    2.0526 H       1  LIG1       0.16000000000000003
     79 H          -7.4246   -0.5529   -2.0175 H       1  LIG1       0.20999999999999996
     80 H          13.5296    1.9567    0.2839 H       1  LIG1          0.12
     81 H          -5.6232   -2.2105    1.9847 H       1  LIG1       0.15000000000000002
     82 H          -8.1175   -2.1625   -0.7887 H       1  LIG1       0.10999999999999999
     83 H          -5.8006   -1.3522   -0.9278 H       1  LIG1          0.14
     84 H           3.9950    2.0818    1.1757 H       1  LIG1       0.16000000000000003
     85 H          -8.5410   -0.7332    1.5625 H       1  LIG1       0.16000000000000003
     86 H          -9.5537    5.1746   -2.1536 H       1  LIG1          0.36
     87 H          -8.9248    3.8735   -3.0435 H       1  LIG1          0.37
     88 H          10.7676    1.8784   -0.5394 H       1  LIG1       0.41000000000000003
     89 H          -7.6096   -4.2822    0.0552 H       1  LIG1       0.43000000000000005
     90 H           1.5341    1.0959    2.1684 H       1  LIG1       0.43000000000000005
     91 H          -3.7730   -3.0269   -0.6668 H       1  LIG1          0.51
     92 H           2.1057   -0.7844    1.9044 H       1  LIG1       0.45999999999999996
@<TRIPOS>BOND
     1    87    26    1
     2    35    16    2
     3    70     7    1
     4    41    51    2
     5    69     6    1
     6    26    86    1
     7    26    21    1
     8    58     2    1
     9    31    12   ar
    10    31    17   ar
    11    40    51    1
    12    68     6    1
    13    79    12    1
    14     7     6    1
    15     7    71    1
    16     7    54    1
    17     6    27    1
    18    63     3    1
    19    16    54    1
    20    16     8    1
    21    77    10    1
    22    51    39    1
    23    51    49    1
    24    12    32   ar
    25    73     8    1
    26     2    60    1
    27     2    59    1
    28     2    25    1
    29    17    21   ar
    30    17    22   ar
    31    21    29   ar
    32    83    19    1
    33     8    72    1
    34     8    13    1
    35    82    18    1
    36    42    91    1
    37    42    52    1
    38    39    89    1
    39     3    62    1
    40     3    25    1
    41     3    61    1
    42    10    25    1
    43    10    47    1
    44    10    76    1
    45    33    88    1
    46    33    13    1
    47    27    15   am
    48    64     4    1
    49    49    19    1
    50    25    20    1
    51    47    53    1
    52    32    22   ar
    53    32    24    1
    54    19    18    1
    55    19    14    1
    56    29    11   ar
    57    13    80    1
    58    13     1    1
    59    22    30   ar
    60    18    24    1
    61    18    36    1
    62    50    52    1
    63    50    53    1
    64    75     9    1
    65    15     4    1
    66    15    34    2
    67     4    65    1
    68     4     5    1
    69    52    43    2
    70    52    46    1
    71    24    48    1
    72    24    85    1
    73    53    45    2
    74    53    44    1
    75    11    30   ar
    76    11    78    1
    77    67     5    1
    78    20    84    1
    79    20    23    1
    80    20    37    1
    81    14     9    1
    82    14    48    1
    83    14    81    1
    84     9    46    1
    85     9    74    1
    86    56     1    1
    87     1    55    1
    88     1    57    1
    89     5    28    1
    90     5    66    1
    91    23    28    2
    92    23    38    1
    93    38    92    1
    94    37    90    1
