@<TRIPOS>MOLECULE
QHKABHOOEWYVLI-UHFFFAOYSA-M	6045118	-420.4866860107274
 15 14 0 0 0
SMALL
MULLIKEN NwChem

@<TRIPOS>ATOM
      1 C           1.9911   -1.5400   -1.4371 C.3     1  LIG1      -0.45999999999999996
      2 C           1.6312   -0.0550   -1.5620 C.3     1  LIG1      -0.2400000000000002
      3 C           0.9818    0.5029   -0.2932 C.3     1  LIG1       -0.3600000000000003
      4 C          -0.4524    0.0053   -0.0442 C.2     1  LIG1       0.3700000000000001
      5 C          -1.0552    0.4378    1.3189 C.2     1  LIG1       0.4800000000000004
      6 O          -1.0156   -0.7113   -0.8662 O.2     1  LIG1      -0.5299999999999994
      7 O          -2.1038    1.1145    1.2874 O.co2   1  LIG1      -0.6500000000000004
      8 O          -0.3486    0.0324    2.2801 O.co2   1  LIG1      -0.6500000000000004
      9 H           2.4542   -1.9251   -2.3561 H       1  LIG1          0.14
     10 H           1.0860   -2.1196   -1.2362 H       1  LIG1       0.15000000000000002
     11 H           2.6946   -1.7058   -0.6100 H       1  LIG1          0.14
     12 H           0.9290    0.0695   -2.3965 H       1  LIG1          0.13
     13 H           2.5335    0.5257   -1.8060 H       1  LIG1          0.14
     14 H           0.9289    1.6024   -0.3317 H       1  LIG1       0.17000000000000004
     15 H           1.5590    0.2653    0.6077 H       1  LIG1       0.17000000000000004
@<TRIPOS>BOND
     1    12     2    1
     2     9     1    1
     3    13     2    1
     4     2     1    1
     5     2     3    1
     6     1    10    1
     7     1    11    1
     8     6     4    2
     9    14     3    1
    10     3     4    1
    11     3    15    1
    12     4     5    1
    13     7     5   ar
    14     5     8   ar
