@<TRIPOS>MOLECULE
QHWZTVCCBMIIKE-SHYZEUOFSA-K	6045121	-1969.710869203453
 35 36 0 0 0
SMALL
MULLIKEN NwChem

@<TRIPOS>ATOM
      1 C           0.9667    2.3673   -4.3819 C.ar    1  LIG1       -0.29000000000000004
      2 C           0.7516    1.6557   -3.2496 C.ar    1  LIG1       0.08000000000000007
      3 C           2.1680    0.1913   -0.6293 C.3     1  LIG1       -0.3200000000000003
      4 C          -0.7295    1.2892    0.6701 C.3     1  LIG1       -0.07000000000000028
      5 C           1.3990   -0.1664    0.6438 C.3     1  LIG1       0.09999999999999964
      6 C          -0.0771   -0.0222    0.1975 C.3     1  LIG1       0.09999999999999964
      7 C           1.9166    1.8661   -5.3893 C.ar    1  LIG1       0.5099999999999998
      8 C           1.2292   -0.2529   -1.7584 C.3     1  LIG1       0.2999999999999998
      9 C           2.4004    0.0101   -3.9677 C.ar    1  LIG1       0.6699999999999999
     10 N           2.5872    0.7011   -5.1133 N.ar    1  LIG1      -0.6600000000000001
     11 N           1.4099    0.4805   -3.0199 N.ar    1  LIG1         -0.5
     12 O           1.7213   -1.4931    1.0328 O.3     1  LIG1      -0.7300000000000004
     13 O           2.0920    2.5027   -6.4563 O.2     1  LIG1      -0.6899999999999995
     14 O           3.0264   -1.0185   -3.6492 O.2     1  LIG1      -0.6600000000000001
     15 O          -1.4607   -2.7194    1.8831 O.2     1  LIG1      -0.7100000000000009
     16 O           0.1350   -1.5121    3.4624 O.3     1  LIG1      -0.7799999999999994
     17 O          -2.1563   -2.3545    4.3976 O.3     1  LIG1      -0.6799999999999997
     18 O          -0.5986    0.9090    4.4557 O.3     1  LIG1      -0.7200000000000006
     19 O          -2.6817    2.0538    3.2905 O.2     1  LIG1      -0.6699999999999999
     20 O          -0.4648    1.5445    2.0365 O.3     1  LIG1      -0.5800000000000001
     21 O          -0.0856   -0.0288   -1.2587 O.3     1  LIG1      -0.5700000000000003
     22 O          -2.0386   -0.3627    2.7186 O.3     1  LIG1      -0.6999999999999993
     23 P          -1.4584   -1.9010    3.1459 P.3     1  LIG1       1.1300000000000008
     24 P          -1.5232    1.0984    3.2653 P.3     1  LIG1       1.1199999999999992
     25 H           0.4295    3.2915   -4.5763 H       1  LIG1          0.13
     26 H           0.0441    1.9403   -2.4777 H       1  LIG1       0.18999999999999995
     27 H           2.3065    1.2780   -0.6975 H       1  LIG1       0.17000000000000004
     28 H           3.1423   -0.2985   -0.6917 H       1  LIG1       0.16000000000000003
     29 H          -0.2906    2.1171    0.0903 H       1  LIG1       0.16000000000000003
     30 H          -1.8064    1.2664    0.4563 H       1  LIG1       0.16000000000000003
     31 H           1.6056    0.5336    1.4630 H       1  LIG1       0.15000000000000002
     32 H          -0.6527   -0.8825    0.5504 H       1  LIG1       0.16000000000000003
     33 H           1.3848   -1.3092   -1.9925 H       1  LIG1       0.16000000000000003
     34 H           1.1379   -1.6887    1.8013 H       1  LIG1       0.43999999999999995
     35 H           0.1121   -0.6548    3.9743 H       1  LIG1       0.44999999999999996
@<TRIPOS>BOND
     1    13     7    2
     2     7    10   ar
     3     7     1   ar
     4    10     9   ar
     5    25     1    1
     6     1     2   ar
     7     9    14    2
     8     9    11   ar
     9     2    11   ar
    10     2    26    1
    11    11     8    1
    12    33     8    1
    13     8    21    1
    14     8     3    1
    15    21     6    1
    16    27     3    1
    17    28     3    1
    18     3     5    1
    19    29     4    1
    20     6    32    1
    21     6     5    1
    22     6     4    1
    23    30     4    1
    24     5    12    1
    25     5    31    1
    26     4    20    1
    27    12    34    1
    28    15    23    2
    29    20    24    1
    30    22    23    1
    31    22    24    1
    32    23    16    1
    33    23    17    1
    34    24    19    2
    35    24    18    1
    36    16    35    1
