@<TRIPOS>MOLECULE
QIGBRXMKCJKVMJ-UHFFFAOYSA-N	6045124	-382.61240718698974
 14 14 0 0 0
SMALL
MULLIKEN NwChem

@<TRIPOS>ATOM
      1 C          -0.7344    1.1672   -0.0451 C.ar    1  LIG1      -0.21999999999999975
      2 C          -1.3761   -0.0744   -0.0673 C.ar    1  LIG1      -0.21999999999999975
      3 C           1.4070    0.0546    0.0498 C.ar    1  LIG1      -0.1900000000000004
      4 C           0.7690   -1.1800    0.0279 C.ar    1  LIG1      -0.1900000000000004
      5 C           0.6584    1.2371    0.0132 C.ar    1  LIG1       0.33000000000000007
      6 C          -0.6280   -1.2522   -0.0308 C.ar    1  LIG1       0.33000000000000007
      7 O           1.3506    2.4227    0.0375 O.3     1  LIG1      -0.6899999999999995
      8 O          -1.1944   -2.5032   -0.0492 O.3     1  LIG1      -0.6799999999999997
      9 H          -1.3272    2.0797   -0.0729 H       1  LIG1       0.17000000000000004
     10 H          -2.4628   -0.1182   -0.1131 H       1  LIG1       0.16000000000000003
     11 H           2.4893    0.1224    0.0954 H       1  LIG1       0.15000000000000002
     12 H           1.3387   -2.1034    0.0556 H       1  LIG1       0.16000000000000003
     13 H           0.7186    3.1567    0.0046 H       1  LIG1       0.44999999999999996
     14 H          -2.1585   -2.4116   -0.0877 H       1  LIG1       0.44999999999999996
@<TRIPOS>BOND
     1    10     2    1
     2    14     8    1
     3     9     1    1
     4     2     1   ar
     5     2     6   ar
     6     8     6    1
     7     1     5   ar
     8     6     4   ar
     9    13     7    1
    10     5     7    1
    11     5     3   ar
    12     4     3   ar
    13     4    12    1
    14     3    11    1
