@<TRIPOS>MOLECULE
QIQXTHQIDYTFRH-UHFFFAOYSA-M	6045125	-857.1911238217682
 55 54 0 0 0
SMALL
MULLIKEN NwChem

@<TRIPOS>ATOM
      1 C           4.2560   -3.3952    6.5946 C.3     1  LIG1      -0.45999999999999996
      2 C           4.4515   -2.0761    5.8384 C.3     1  LIG1      -0.2599999999999998
      3 C           4.6761   -2.2504    4.3267 C.3     1  LIG1      -0.2599999999999998
      4 C           3.5332   -2.9490    3.5680 C.3     1  LIG1      -0.2699999999999996
      5 C           2.1506   -2.2914    3.7188 C.3     1  LIG1      -0.2699999999999996
      6 C           2.0779   -0.8121    3.3012 C.3     1  LIG1      -0.2699999999999996
      7 C           2.5134   -0.5159    1.8551 C.3     1  LIG1      -0.2699999999999996
      8 C           1.7516   -1.2979    0.7706 C.3     1  LIG1      -0.2699999999999996
      9 C           0.2229   -1.1230    0.7915 C.3     1  LIG1      -0.2699999999999996
     10 C          -0.2712    0.3281    0.6602 C.3     1  LIG1      -0.2699999999999996
     11 C           0.1984    1.0664   -0.6053 C.3     1  LIG1      -0.2699999999999996
     12 C          -0.1673    0.3806   -1.9339 C.3     1  LIG1      -0.2699999999999996
     13 C          -1.6678    0.0974   -2.1296 C.3     1  LIG1      -0.2699999999999996
     14 C          -2.5852    1.3265   -2.0296 C.3     1  LIG1      -0.2699999999999996
     15 C          -2.2572    2.4658   -3.0098 C.3     1  LIG1      -0.2599999999999998
     16 C          -2.2431    2.0581   -4.4961 C.3     1  LIG1      -0.2699999999999996
     17 C          -3.5238    1.3431   -4.9629 C.3     1  LIG1       -0.3200000000000003
     18 C          -4.7813    2.2187   -4.6242 C.2     1  LIG1       0.5199999999999996
     19 O          -4.9736    3.1882   -5.3989 O.co2   1  LIG1      -0.6899999999999995
     20 O          -5.4072    1.8894   -3.5789 O.co2   1  LIG1      -0.6799999999999997
     21 H           3.3466   -3.9136    6.2708 H       1  LIG1       0.15000000000000002
     22 H           4.1728   -3.2258    7.6747 H       1  LIG1          0.14
     23 H           5.1019   -4.0742    6.4264 H       1  LIG1          0.14
     24 H           3.5831   -1.4264    6.0102 H       1  LIG1          0.14
     25 H           5.3146   -1.5433    6.2606 H       1  LIG1          0.13
     26 H           4.8554   -1.2630    3.8814 H       1  LIG1          0.14
     27 H           5.6009   -2.8253    4.1713 H       1  LIG1          0.13
     28 H           3.8008   -2.9925    2.5042 H       1  LIG1          0.14
     29 H           3.4607   -3.9942    3.8984 H       1  LIG1          0.13
     30 H           1.4266   -2.8700    3.1309 H       1  LIG1          0.14
     31 H           1.8191   -2.3762    4.7629 H       1  LIG1          0.13
     32 H           1.0474   -0.4630    3.4461 H       1  LIG1          0.14
     33 H           2.6944   -0.2100    3.9831 H       1  LIG1          0.13
     34 H           2.3964    0.5604    1.6734 H       1  LIG1          0.13
     35 H           3.5879   -0.7207    1.7473 H       1  LIG1          0.13
     36 H           2.1363   -0.9917   -0.2108 H       1  LIG1          0.13
     37 H           1.9843   -2.3682    0.8614 H       1  LIG1          0.13
     38 H          -0.2045   -1.7232   -0.0216 H       1  LIG1          0.13
     39 H          -0.1807   -1.5497    1.7206 H       1  LIG1          0.13
     40 H          -1.3678    0.3225    0.6836 H       1  LIG1          0.14
     41 H           0.0440    0.9029    1.5430 H       1  LIG1          0.13
     42 H          -0.2348    2.0742   -0.5942 H       1  LIG1          0.13
     43 H           1.2887    1.2072   -0.5647 H       1  LIG1          0.13
     44 H           0.1861    1.0173   -2.7550 H       1  LIG1          0.13
     45 H           0.3918   -0.5629   -2.0247 H       1  LIG1          0.13
     46 H          -1.8013   -0.3688   -3.1140 H       1  LIG1          0.13
     47 H          -1.9950   -0.6553   -1.3968 H       1  LIG1          0.13
     48 H          -3.6248    1.0351   -2.2188 H       1  LIG1          0.13
     49 H          -2.5547    1.7222   -1.0024 H       1  LIG1          0.13
     50 H          -3.0211    3.2399   -2.8754 H       1  LIG1          0.12
     51 H          -1.2890    2.9263   -2.7532 H       1  LIG1          0.13
     52 H          -2.1339    2.9702   -5.0979 H       1  LIG1          0.12
     53 H          -1.3559    1.4350   -4.7013 H       1  LIG1          0.13
     54 H          -3.4606    1.1899   -6.0493 H       1  LIG1       0.10999999999999999
     55 H          -3.6110    0.3589   -4.4839 H       1  LIG1       0.10999999999999999
@<TRIPOS>BOND
     1    54    17    1
     2    19    18   ar
     3    52    16    1
     4    17    18    1
     5    17    16    1
     6    17    55    1
     7    53    16    1
     8    18    20   ar
     9    16    15    1
    10    46    13    1
    11    15    50    1
    12    15    51    1
    13    15    14    1
    14    44    12    1
    15    48    14    1
    16    13    14    1
    17    13    12    1
    18    13    47    1
    19    14    49    1
    20    45    12    1
    21    12    11    1
    22    11    42    1
    23    11    43    1
    24    11    10    1
    25    36     8    1
    26    38     9    1
    27    10    40    1
    28    10     9    1
    29    10    41    1
    30     8     9    1
    31     8    37    1
    32     8     7    1
    33     9    39    1
    34    34     7    1
    35    35     7    1
    36     7     6    1
    37    28     4    1
    38    30     5    1
    39     6    32    1
    40     6     5    1
    41     6    33    1
    42     4     5    1
    43     4    29    1
    44     4     3    1
    45     5    31    1
    46    26     3    1
    47    27     3    1
    48     3     2    1
    49     2    24    1
    50     2    25    1
    51     2     1    1
    52    21     1    1
    53    23     1    1
    54     1    22    1
