@<TRIPOS>MOLECULE
QIVBCDIJIAJPQS-VIFPVBQESA-N	6045127	-686.2043521564647
 27 28 0 0 0
SMALL
MULLIKEN NwChem

@<TRIPOS>ATOM
      1 CZ3         3.5264    0.2456    0.1056 C.ar    1  TRP1      -0.16999999999999993
      2 CH2         3.6344    1.6375   -0.0972 C.ar    1  TRP1      -0.17999999999999972
      3 CE3         2.3279   -0.4205   -0.1190 C.ar    1  TRP1      -0.2400000000000002
      4 CZ2         2.5473    2.3904   -0.5282 C.ar    1  TRP1      -0.1900000000000004
      5 CB         -0.7665   -1.4015   -0.7715 C.3     1  TRP1      -0.34999999999999964
      6 CD1        -0.7764    1.1258   -1.2415 C.ar    1  TRP1       -0.019999999999999574
      7 CG         -0.1479   -0.0398   -0.8804 C.ar    1  TRP1      0.040000000000000036
      8 CD2         1.2114    0.3129   -0.5545 C.ar    1  TRP1       0.05999999999999961
      9 CA         -1.2337   -1.7228    0.6574 C.3     1  TRP1       -0.03000000000000025
     10 CE2         1.3429    1.7156   -0.7503 C.ar    1  TRP1       0.29000000000000004
     11 C          -2.3430   -0.7560    1.0701 C.2     1  TRP1       0.5899999999999999
     12 N          -1.7125   -3.1111    0.7349 N.3     1  TRP1      -0.7599999999999998
     13 NE1         0.1130    2.1827   -1.1681 N.ar    1  TRP1      -0.6799999999999997
     14 O          -3.2578   -0.3987    0.3556 O.2     1  TRP1      -0.5199999999999996
     15 OXT        -2.2594   -0.4066    2.3771 O.3     1  TRP1      -0.5899999999999999
     16 HZ3         4.3968   -0.3108    0.4427 H       1  TRP1          0.14
     17 HH2         4.5849    2.1312    0.0859 H       1  TRP1       0.15000000000000002
     18 HE3         2.2521   -1.4937    0.0376 H       1  TRP1       0.15000000000000002
     19 HZ2         2.6308    3.4628   -0.6849 H       1  TRP1       0.15000000000000002
     20 HB1        -1.6327   -1.4790   -1.4388 H       1  TRP1       0.16000000000000003
     21 HB2        -0.0542   -2.1804   -1.0654 H       1  TRP1       0.16000000000000003
     22 HD1        -1.8057    1.2821   -1.5323 H       1  TRP1       0.18000000000000005
     23 HA         -0.3970   -1.6140    1.3539 H       1  TRP1       0.17000000000000004
     24 H1         -1.9730   -3.3400    1.6933 H       1  TRP1       0.33999999999999997
     25 H2         -2.5581   -3.2037    0.1715 H       1  TRP1       0.32999999999999996
     26 HE1        -0.1002    3.1401   -1.3985 H       1  TRP1          0.37
     27 HXT        -3.0382    0.1522    2.5635 H       1  TRP1       0.43999999999999995
@<TRIPOS>BOND
     1    22     6    1
     2    20     5    1
     3    26    13    1
     4     6    13   ar
     5     6     7   ar
     6    13    10   ar
     7    21     5    1
     8     7     5    1
     9     7     8   ar
    10     5     9    1
    11    10     8   ar
    12    10     4   ar
    13    19     4    1
    14     8     3   ar
    15     4     2   ar
    16     3    18    1
    17     3     1   ar
    18     2    17    1
    19     2     1   ar
    20     1    16    1
    21    25    12    1
    22    14    11    2
    23     9    12    1
    24     9    11    1
    25     9    23    1
    26    12    24    1
    27    11    15    1
    28    15    27    1
