@<TRIPOS>MOLECULE
QIVBCDIJIAJPQS-SECBINFHSA-N	6045126	-686.2035986439867
 27 28 0 0 0
SMALL
MULLIKEN NwChem

@<TRIPOS>ATOM
      1 CZ3        -0.9260    2.4760    2.1641 C.ar    1  TRP1      -0.16999999999999993
      2 CH2        -1.6867    1.8435    3.1699 C.ar    1  TRP1      -0.17999999999999972
      3 CE3        -0.5786    1.8039    0.9989 C.ar    1  TRP1      -0.2400000000000002
      4 CZ2        -2.1154    0.5278    3.0325 C.ar    1  TRP1      -0.1900000000000004
      5 CB         -0.0416   -0.3054   -1.4794 C.3     1  TRP1      -0.3600000000000003
      6 CD1        -1.4666   -1.6395    0.1976 C.ar    1  TRP1       -0.019999999999999574
      7 CG         -0.8288   -0.4977   -0.2222 C.ar    1  TRP1      0.040000000000000036
      8 CD2        -0.9981    0.4733    0.8313 C.ar    1  TRP1       0.07000000000000028
      9 CA          1.4981   -0.3638   -1.2074 C.3     1  TRP1       -0.04999999999999982
     10 CE2        -1.7617   -0.1448    1.8584 C.ar    1  TRP1       0.29000000000000004
     11 C           2.2147   -0.0104   -2.4975 C.2     1  TRP1       0.5999999999999996
     12 N           1.9849   -1.6305   -0.6673 N.3     1  TRP1      -0.7699999999999996
     13 NE1        -2.0313   -1.4342    1.4443 N.ar    1  TRP1      -0.6799999999999997
     14 OXT         2.5637    1.1021   -2.8213 O.2     1  TRP1      -0.5199999999999996
     15 O           2.3504   -1.0884   -3.3144 O.3     1  TRP1      -0.5899999999999999
     16 HZ3        -0.6081    3.5050    2.3069 H       1  TRP1          0.14
     17 HH2        -1.9430    2.3950    4.0702 H       1  TRP1          0.14
     18 HE3         0.0067    2.2972    0.2271 H       1  TRP1       0.15000000000000002
     19 HZ2        -2.7015    0.0413    3.8078 H       1  TRP1       0.16000000000000003
     20 HB1        -0.2904   -1.0805   -2.2150 H       1  TRP1       0.16000000000000003
     21 HB2        -0.2838    0.6644   -1.9345 H       1  TRP1       0.16000000000000003
     22 HD1        -1.5775   -2.5895   -0.3077 H       1  TRP1       0.18000000000000005
     23 HA          1.7472    0.4306   -0.4977 H       1  TRP1       0.18000000000000005
     24 H1          1.4338   -1.8571    0.1601 H       1  TRP1       0.32999999999999996
     25 H2          1.8161   -2.3729   -1.3450 H       1  TRP1       0.32999999999999996
     26 HE1        -2.5793   -2.1085    1.9545 H       1  TRP1          0.37
     27 H           2.7850   -0.7634   -4.1250 H       1  TRP1       0.44999999999999996
@<TRIPOS>BOND
     1    27    15    1
     2    15    11    1
     3    14    11    2
     4    11     9    1
     5    20     5    1
     6    21     5    1
     7     5     9    1
     8     5     7    1
     9    25    12    1
    10     9    12    1
    11     9    23    1
    12    12    24    1
    13    22     6    1
    14     7     6   ar
    15     7     8   ar
    16     6    13   ar
    17    18     3    1
    18     8     3   ar
    19     8    10   ar
    20     3     1   ar
    21    13    10   ar
    22    13    26    1
    23    10     4   ar
    24     1    16    1
    25     1     2   ar
    26     4     2   ar
    27     4    19    1
    28     2    17    1
