@<TRIPOS>MOLECULE
QJVMEAZHJKXWJD-HESBYNJASA-N	6045128	-1168.1199031585318
 73 76 0 0 0
SMALL
MULLIKEN NwChem

@<TRIPOS>ATOM
      1 C          -1.2804   -7.0327   -0.8454 C.3     1  LIG1      -0.5300000000000002
      2 C          -0.6202   -6.9837    1.6043 C.3     1  LIG1      -0.5199999999999996
      3 C           2.7848   -2.9030   -1.8878 C.3     1  LIG1      -0.4800000000000004
      4 C          -2.3766    5.7801    1.2339 C.3     1  LIG1      -0.46999999999999975
      5 C           1.4354   -1.2433    0.8690 C.3     1  LIG1      -0.4800000000000004
      6 C          -1.0264    3.9967   -1.3221 C.3     1  LIG1      -0.4900000000000002
      7 C           1.5277   -5.9712   -1.5269 C.3     1  LIG1      -0.3099999999999996
      8 C           1.0217   -6.2981   -0.1375 C.2     1  LIG1      -0.20000000000000018
      9 C           0.9716   -4.6350   -2.0681 C.3     1  LIG1      -0.2699999999999996
     10 C          -1.8952    1.2766    1.3564 C.3     1  LIG1      -0.34999999999999964
     11 C          -2.2060    2.7769    1.4037 C.3     1  LIG1      -0.29000000000000004
     12 C          -0.9587   -2.7781   -0.5777 C.3     1  LIG1      -0.33000000000000007
     13 C          -1.5907   -1.4977   -0.1002 C.2     1  LIG1      -0.23000000000000043
     14 C           0.6127    1.3424   -1.6128 C.3     1  LIG1      -0.34999999999999964
     15 C           1.3916    5.0323    0.9779 C.3     1  LIG1      -0.2999999999999998
     16 C           1.4682    0.1005   -1.2800 C.3     1  LIG1      -0.3099999999999996
     17 C           1.2032    3.9302   -0.0892 C.3     1  LIG1      -0.3099999999999996
     18 C          -0.2032   -6.7490    0.1731 C.2     1  LIG1      0.17999999999999972
     19 C           1.4565   -3.3878   -1.2875 C.3     1  LIG1      -0.07000000000000028
     20 C          -1.0593    5.0890    1.6207 C.3     1  LIG1      -0.08999999999999986
     21 C          -0.9101    0.9243    0.2649 C.2     1  LIG1      0.07000000000000028
     22 C           0.3672   -2.2977   -1.2372 C.3     1  LIG1      -0.11000000000000032
     23 C          -0.9175    3.5871    1.2354 C.3     1  LIG1      -0.11000000000000032
     24 C          -0.7121   -0.4837   -0.0877 C.2     1  LIG1      0.08000000000000007
     25 C          -0.1955    1.8403   -0.4265 C.2     1  LIG1      0.05999999999999961
     26 C           0.1497    5.9100    1.1273 C.3     1  LIG1       0.13999999999999968
     27 C           0.6948   -0.9734   -0.4631 C.3     1  LIG1      0.07000000000000028
     28 C          -0.2527    3.3406   -0.1484 C.3     1  LIG1      0.05999999999999961
     29 O           0.3435    6.9614    2.0804 O.3     1  LIG1      -0.6899999999999995
     30 H          -1.7287   -8.0215   -0.6770 H       1  LIG1       0.16000000000000003
     31 H          -0.9204   -6.9948   -1.8762 H       1  LIG1       0.16000000000000003
     32 H          -2.0966   -6.3017   -0.7496 H       1  LIG1       0.16000000000000003
     33 H           0.1823   -6.7501    2.3119 H       1  LIG1       0.16000000000000003
     34 H          -1.4939   -6.3680    1.8612 H       1  LIG1       0.16000000000000003
     35 H          -0.9208   -8.0286    1.7658 H       1  LIG1       0.16000000000000003
     36 H           2.6331   -2.5185   -2.9050 H       1  LIG1          0.14
     37 H           3.2507   -2.1085   -1.2978 H       1  LIG1       0.15000000000000002
     38 H           3.5026   -3.7295   -1.9535 H       1  LIG1          0.14
     39 H          -2.5374    5.7845    0.1520 H       1  LIG1       0.15000000000000002
     40 H          -3.2414    5.3004    1.6987 H       1  LIG1       0.15000000000000002
     41 H          -2.3447    6.8192    1.5768 H       1  LIG1          0.14
     42 H           0.9242   -2.0100    1.4617 H       1  LIG1          0.14
     43 H           2.4681   -1.5691    0.7042 H       1  LIG1       0.15000000000000002
     44 H           1.4656   -0.3231    1.4646 H       1  LIG1          0.14
     45 H          -1.0249    5.0887   -1.2586 H       1  LIG1       0.16000000000000003
     46 H          -0.5584    3.7286   -2.2767 H       1  LIG1       0.15000000000000002
     47 H          -2.0658    3.6564   -1.3579 H       1  LIG1       0.15000000000000002
     48 H           2.6245   -5.9366   -1.5154 H       1  LIG1          0.14
     49 H           1.2591   -6.7702   -2.2310 H       1  LIG1          0.14
     50 H           1.7118   -6.1033    0.6833 H       1  LIG1          0.12
     51 H           1.2514   -4.5258   -3.1256 H       1  LIG1          0.13
     52 H          -0.1195   -4.6984   -2.0491 H       1  LIG1       0.15000000000000002
     53 H          -1.4913    0.9411    2.3249 H       1  LIG1       0.15000000000000002
     54 H          -2.8216    0.7030    1.2117 H       1  LIG1       0.15000000000000002
     55 H          -2.6886    3.0257    2.3567 H       1  LIG1          0.14
     56 H          -2.9223    3.0357    0.6150 H       1  LIG1          0.14
     57 H          -1.6029   -3.3357   -1.2668 H       1  LIG1       0.15000000000000002
     58 H          -0.7433   -3.4618    0.2593 H       1  LIG1          0.14
     59 H          -2.6373   -1.4263    0.1847 H       1  LIG1          0.13
     60 H          -0.0844    1.0821   -2.4239 H       1  LIG1       0.15000000000000002
     61 H           1.2637    2.1276   -2.0137 H       1  LIG1       0.15000000000000002
     62 H           2.2578    5.6529    0.7167 H       1  LIG1          0.14
     63 H           1.6136    4.5899    1.9572 H       1  LIG1          0.14
     64 H           2.3463    0.4302   -0.7105 H       1  LIG1          0.14
     65 H           1.8485   -0.3242   -2.2145 H       1  LIG1          0.14
     66 H           1.4709    4.3271   -1.0757 H       1  LIG1       0.15000000000000002
     67 H           1.9170    3.1250    0.1226 H       1  LIG1       0.15000000000000002
     68 H           1.6500   -3.6954   -0.2511 H       1  LIG1          0.13
     69 H          -0.9955    5.1245    2.7163 H       1  LIG1          0.13
     70 H           0.1266   -2.0022   -2.2712 H       1  LIG1          0.12
     71 H          -0.2098    3.1604    1.9628 H       1  LIG1          0.13
     72 H          -0.0862    6.3531    0.1463 H       1  LIG1          0.12
     73 H           1.0351    7.5479    1.7362 H       1  LIG1       0.42000000000000004
@<TRIPOS>BOND
     1    51     9    1
     2    36     3    1
     3    60    14    1
     4    46     6    1
     5    70    22    1
     6    49     7    1
     7    65    16    1
     8     9    52    1
     9     9     7    1
    10     9    19    1
    11    61    14    1
    12    38     3    1
    13     3    37    1
    14     3    19    1
    15    31     1    1
    16    14    16    1
    17    14    25    1
    18     7    48    1
    19     7     8    1
    20    47     6    1
    21     6    45    1
    22     6    28    1
    23    19    22    1
    24    19    68    1
    25    16    64    1
    26    16    27    1
    27    57    12    1
    28    22    12    1
    29    22    27    1
    30    66    17    1
    31     1    32    1
    32     1    30    1
    33     1    18    1
    34    12    13    1
    35    12    58    1
    36    27    24    1
    37    27     5    1
    38    25    28    1
    39    25    21    2
    40    28    17    1
    41    28    23    1
    42     8    18    2
    43     8    50    1
    44    13    24    2
    45    13    59    1
    46    17    67    1
    47    17    15    1
    48    24    21    1
    49    72    26    1
    50    39     4    1
    51    18     2    1
    52    21    10    1
    53    56    11    1
    54    43     5    1
    55    62    15    1
    56     5    42    1
    57     5    44    1
    58    15    26    1
    59    15    63    1
    60    26    20    1
    61    26    29    1
    62    54    10    1
    63     4    41    1
    64     4    20    1
    65     4    40    1
    66    23    11    1
    67    23    20    1
    68    23    71    1
    69    10    11    1
    70    10    53    1
    71    11    55    1
    72     2    35    1
    73     2    34    1
    74     2    33    1
    75    20    69    1
    76    73    29    1
