@<TRIPOS>MOLECULE
QKMBYNRMPRKVTO-MNOVXSKESA-K	11085210	-1538.5118770320687
 36 36 0 0 0
SMALL
MULLIKEN NwChem

@<TRIPOS>ATOM
      1 C          -3.8192    0.9998    2.4511 C.ar    1  LIG1      -0.16999999999999993
      2 C          -2.4335    0.9091    2.2673 C.ar    1  LIG1      -0.17999999999999972
      3 C          -4.6542    0.2903    1.5861 C.ar    1  LIG1      -0.21999999999999975
      4 C          -1.8925    0.1323    1.2483 C.ar    1  LIG1      -0.21999999999999975
      5 C          -0.8666   -1.8147   -0.7924 C.3     1  LIG1       -0.20999999999999996
      6 C           2.5198    1.3880   -0.6818 C.3     1  LIG1       -0.05999999999999961
      7 C          -4.1664   -0.5092    0.5477 C.ar    1  LIG1       -0.009999999999999787
      8 C          -2.7436   -0.5918    0.3722 C.ar    1  LIG1          0.25
      9 C          -0.1511   -1.1111   -1.9360 C.2     1  LIG1       0.4299999999999997
     10 C           1.7392    0.0432   -0.7156 C.3     1  LIG1       0.17999999999999972
     11 C           0.4626    0.2420   -1.6998 C.3     1  LIG1       0.040000000000000036
     12 C          -5.1993   -1.2727   -0.3162 C.2     1  LIG1           0.5
     13 N          -2.2375   -1.3576   -0.6509 N.pl3   1  LIG1      -0.6900000000000004
     14 O           0.0055   -1.6607   -3.0359 O.2     1  LIG1      -0.5399999999999991
     15 O           1.3636   -0.3994    0.5033 O.3     1  LIG1      -0.7300000000000004
     16 O           0.8040    0.8080   -2.9671 O.3     1  LIG1      -0.6899999999999995
     17 O          -4.7493   -2.0212   -1.2444 O.co2   1  LIG1      -0.6699999999999999
     18 O          -6.4132   -1.1031   -0.0309 O.co2   1  LIG1      -0.6699999999999999
     19 O           5.7174    1.2391    1.5182 O.2     1  LIG1      -0.7100000000000009
     20 O           3.5726    2.7166    1.8683 O.3     1  LIG1      -0.7300000000000004
     21 O           3.4691    0.1200    2.0661 O.3     1  LIG1      -0.7799999999999994
     22 O           3.8554    1.2030   -0.2230 O.3     1  LIG1      -0.6099999999999994
     23 P           4.2207    1.4238    1.4161 P.3     1  LIG1           1.0
     24 H          -4.2380    1.6139    3.2499 H       1  LIG1          0.13
     25 H          -1.7527    1.4568    2.9187 H       1  LIG1          0.14
     26 H          -5.7364    0.3212    1.6882 H       1  LIG1          0.12
     27 H          -0.8100    0.0949    1.1151 H       1  LIG1       0.15000000000000002
     28 H          -0.8694   -2.8904   -1.0234 H       1  LIG1       0.15000000000000002
     29 H          -0.2545   -1.6203    0.1020 H       1  LIG1       0.19999999999999996
     30 H           1.9767    2.0852   -0.0271 H       1  LIG1       0.10999999999999999
     31 H           2.5819    1.8162   -1.6922 H       1  LIG1          0.13
     32 H           2.4028   -0.6595   -1.2927 H       1  LIG1       0.040000000000000036
     33 H          -0.2290    0.9096   -1.1716 H       1  LIG1       0.15000000000000002
     34 H          -2.9897   -1.8204   -1.1777 H       1  LIG1          0.35
     35 H           2.6290   -0.0877    1.5347 H       1  LIG1       0.42000000000000004
     36 H           0.7830    0.0222   -3.5508 H       1  LIG1       0.41000000000000003
@<TRIPOS>BOND
     1    36    16    1
     2    14     9    2
     3    16    11    1
     4     9    11    1
     5     9     5    1
     6    11    33    1
     7    11    10    1
     8    31     6    1
     9    32    10    1
    10    17    12   ar
    11    34    13    1
    12    28     5    1
    13     5    13    1
    14     5    29    1
    15    10     6    1
    16    10    15    1
    17     6    22    1
    18     6    30    1
    19    13     8    1
    20    12    18   ar
    21    12     7    1
    22    22    23    1
    23     8     7   ar
    24     8     4   ar
    25     7     3   ar
    26    27     4    1
    27     4     2   ar
    28    23    19    2
    29    23    20    1
    30    23    21    1
    31    35    21    1
    32     3    26    1
    33     3     1   ar
    34     2     1   ar
    35     2    25    1
    36     1    24    1
