@<TRIPOS>MOLECULE
QLDNWJOJCDIMKK-XLFBYWHPSA-N	6045131	-1208.6112606381234
 78 81 0 0 0
SMALL
MULLIKEN NwChem

@<TRIPOS>ATOM
      1 C          -5.0466    6.0072   -2.9763 C.3     1  LIG1      -0.45999999999999996
      2 C          -2.9727    4.8380   -3.8427 C.3     1  LIG1      -0.45999999999999996
      3 C          -5.9765    2.8402   -4.0924 C.2     1  LIG1      -0.4500000000000002
      4 C          -3.8804    1.1618    0.2876 C.3     1  LIG1      -0.4800000000000004
      5 C           5.4148   -4.0609    1.8764 C.3     1  LIG1      -0.4800000000000004
      6 C          -0.5671    1.2840    1.0763 C.3     1  LIG1      -0.4900000000000002
      7 C           2.1012   -3.9938    1.6351 C.3     1  LIG1      -0.4800000000000004
      8 C          -4.6421    2.9755   -1.9999 C.3     1  LIG1      -0.34999999999999964
      9 C          -3.5886    1.8558   -2.1376 C.3     1  LIG1      -0.2699999999999996
     10 C           2.9062   -1.1012   -0.6622 C.3     1  LIG1      -0.33999999999999986
     11 C           3.9231   -2.0631   -0.0385 C.3     1  LIG1      -0.29000000000000004
     12 C          -1.0469    0.3837   -2.3315 C.3     1  LIG1      -0.29000000000000004
     13 C           0.1201   -0.5706   -2.0694 C.3     1  LIG1      -0.28000000000000025
     14 C          -0.0392   -1.6069    1.8737 C.3     1  LIG1      -0.3600000000000003
     15 C           3.4949   -2.9171    4.2494 C.3     1  LIG1      -0.29000000000000004
     16 C          -1.1407   -1.1756    0.9070 C.3     1  LIG1      -0.2999999999999998
     17 C           2.3229   -2.2782    3.4853 C.3     1  LIG1      -0.3099999999999996
     18 C          -4.5118    4.8355   -3.8232 C.3     1  LIG1      -0.13999999999999968
     19 C          -5.0941    3.5131   -3.3468 C.2     1  LIG1      0.23000000000000043
     20 C          -2.8669    1.5011   -0.8202 C.3     1  LIG1      -0.08000000000000007
     21 C           5.0255   -2.6165    2.2307 C.3     1  LIG1      -0.08999999999999986
     22 C           1.5637   -1.0548    0.0449 C.2     1  LIG1      0.08999999999999986
     23 C          -1.8622    0.3408   -1.0195 C.3     1  LIG1      -0.09999999999999964
     24 C           3.8055   -2.0203    1.4847 C.3     1  LIG1      -0.1200000000000001
     25 C           0.5548   -0.1586   -0.6482 C.3     1  LIG1      -0.17999999999999972
     26 C           1.3268   -1.6722    1.2193 C.2     1  LIG1      0.07000000000000028
     27 C           4.8613   -2.4197    3.7551 C.3     1  LIG1       0.1200000000000001
     28 C          -0.7813    0.0986    0.1192 C.3     1  LIG1      0.1200000000000001
     29 C           2.3983   -2.5050    1.9484 C.3     1  LIG1      0.05999999999999961
     30 O           5.0832   -1.0559    4.1344 O.3     1  LIG1      -0.6899999999999995
     31 H          -4.7211    5.9296   -1.9318 H       1  LIG1       0.15000000000000002
     32 H          -6.1418    6.0284   -2.9860 H       1  LIG1       0.15000000000000002
     33 H          -4.6800    6.9638   -3.3668 H       1  LIG1       0.15000000000000002
     34 H          -2.5579    4.6822   -2.8399 H       1  LIG1       0.15000000000000002
     35 H          -2.5802    4.0498   -4.4958 H       1  LIG1       0.15000000000000002
     36 H          -2.5975    5.8009   -4.2074 H       1  LIG1       0.15000000000000002
     37 H          -6.4213    1.9070   -3.7499 H       1  LIG1          0.14
     38 H          -6.2845    3.1925   -5.0742 H       1  LIG1          0.14
     39 H          -4.5304    0.3352   -0.0297 H       1  LIG1          0.14
     40 H          -3.3861    0.8530    1.2131 H       1  LIG1       0.16000000000000003
     41 H          -4.5205    2.0166    0.5297 H       1  LIG1       0.15000000000000002
     42 H           4.7157   -4.8045    2.2675 H       1  LIG1       0.16000000000000003
     43 H           5.4752   -4.2055    0.7929 H       1  LIG1       0.15000000000000002
     44 H           6.4015   -4.2900    2.2960 H       1  LIG1       0.15000000000000002
     45 H          -0.3817    2.2122    0.5238 H       1  LIG1       0.15000000000000002
     46 H          -1.4197    1.4525    1.7420 H       1  LIG1       0.15000000000000002
     47 H           0.3142    1.1040    1.7015 H       1  LIG1       0.15000000000000002
     48 H           2.2564   -4.2186    0.5766 H       1  LIG1       0.15000000000000002
     49 H           2.7132   -4.6821    2.2203 H       1  LIG1       0.15000000000000002
     50 H           1.0549   -4.2213    1.8642 H       1  LIG1       0.15000000000000002
     51 H          -4.2195    3.7845   -1.3894 H       1  LIG1       0.15000000000000002
     52 H          -5.5089    2.5972   -1.4476 H       1  LIG1       0.15000000000000002
     53 H          -4.0765    0.9623   -2.5519 H       1  LIG1          0.13
     54 H          -2.8481    2.1679   -2.8804 H       1  LIG1       0.15000000000000002
     55 H           2.7563   -1.3494   -1.7205 H       1  LIG1       0.15000000000000002
     56 H           3.3225   -0.0807   -0.6618 H       1  LIG1          0.14
     57 H           4.9388   -1.7871   -0.3498 H       1  LIG1          0.13
     58 H           3.7563   -3.0814   -0.4062 H       1  LIG1       0.15000000000000002
     59 H          -0.6565    1.3962   -2.5101 H       1  LIG1          0.13
     60 H          -1.6441    0.1085   -3.2066 H       1  LIG1          0.14
     61 H           0.9212   -0.4847   -2.8101 H       1  LIG1          0.14
     62 H          -0.2249   -1.6135   -2.0730 H       1  LIG1          0.13
     63 H          -0.0086   -0.9313    2.7411 H       1  LIG1       0.15000000000000002
     64 H          -0.3004   -2.5890    2.2883 H       1  LIG1       0.15000000000000002
     65 H           3.4084   -2.6906    5.3182 H       1  LIG1          0.14
     66 H           3.4533   -4.0085    4.1542 H       1  LIG1       0.15000000000000002
     67 H          -2.0852   -1.0315    1.4471 H       1  LIG1          0.13
     68 H          -1.3109   -1.9915    0.1915 H       1  LIG1          0.13
     69 H           1.3804   -2.6652    3.8881 H       1  LIG1          0.14
     70 H           2.3089   -1.1950    3.6816 H       1  LIG1          0.14
     71 H          -4.8559    4.9931   -4.8532 H       1  LIG1          0.13
     72 H          -2.3128    2.3999   -0.5155 H       1  LIG1          0.12
     73 H           5.8805   -1.9875    1.9456 H       1  LIG1          0.12
     74 H          -2.4704   -0.5751   -1.0719 H       1  LIG1          0.12
     75 H           3.8206   -0.9473    1.7444 H       1  LIG1          0.12
     76 H           1.0525    0.8193   -0.7671 H       1  LIG1          0.13
     77 H           5.6560   -2.9679    4.2746 H       1  LIG1          0.13
     78 H           4.3856   -0.5157    3.7337 H       1  LIG1       0.42000000000000004
@<TRIPOS>BOND
     1    38     3    1
     2    71    18    1
     3    35     2    1
     4    36     2    1
     5     3    37    1
     6     3    19    2
     7     2    18    1
     8     2    34    1
     9    18    19    1
    10    18     1    1
    11    33     1    1
    12    19     8    1
    13    60    12    1
    14    32     1    1
    15     1    31    1
    16    54     9    1
    17    61    13    1
    18    53     9    1
    19    59    12    1
    20    12    13    1
    21    12    23    1
    22     9     8    1
    23     9    20    1
    24    62    13    1
    25    13    25    1
    26     8    52    1
    27     8    51    1
    28    55    10    1
    29    74    23    1
    30    23    20    1
    31    23    28    1
    32    20    72    1
    33    20     4    1
    34    76    25    1
    35    10    56    1
    36    10    11    1
    37    10    22    1
    38    25    22    1
    39    25    28    1
    40    58    11    1
    41    57    11    1
    42    11    24    1
    43    39     4    1
    44    22    26    2
    45    28    16    1
    46    28     6    1
    47    68    16    1
    48     4    41    1
    49     4    40    1
    50    45     6    1
    51    48     7    1
    52    43     5    1
    53    16    67    1
    54    16    14    1
    55     6    47    1
    56     6    46    1
    57    26    14    1
    58    26    29    1
    59    24    75    1
    60    24    29    1
    61    24    21    1
    62     7    50    1
    63     7    29    1
    64     7    49    1
    65    14    64    1
    66    14    63    1
    67     5    21    1
    68     5    42    1
    69     5    44    1
    70    73    21    1
    71    29    17    1
    72    21    27    1
    73    17    70    1
    74    17    69    1
    75    17    15    1
    76    78    30    1
    77    27    30    1
    78    27    15    1
    79    27    77    1
    80    66    15    1
    81    15    65    1
