@<TRIPOS>MOLECULE
QLNJFJADRCOGBJ-UHFFFAOYSA-N	6045132	-248.43846539883444
 12 11 0 0 0
SMALL
MULLIKEN NwChem

@<TRIPOS>ATOM
      1 C          -0.0172    0.9670   -1.6536 C.3     1  LIG1      -0.45999999999999996
      2 C          -0.5032   -0.2814   -0.8985 C.3     1  LIG1      -0.3200000000000003
      3 C          -0.0693   -0.2785    0.5492 C.3     1  LIG1       0.4900000000000002
      4 N          -0.7715   -0.2294    1.6099 N.3     1  LIG1      -0.7000000000000002
      5 O           1.2851   -0.3218    0.6520 O.3     1  LIG1      -0.6099999999999994
      6 H          -0.4316    1.8784   -1.2086 H       1  LIG1       0.16000000000000003
      7 H          -0.3292    0.9275   -2.7025 H       1  LIG1       0.16000000000000003
      8 H           1.0736    1.0363   -1.6177 H       1  LIG1       0.16000000000000003
      9 H          -1.5948   -0.3579   -0.9414 H       1  LIG1       0.17000000000000004
     10 H          -0.0909   -1.1803   -1.3741 H       1  LIG1       0.18000000000000005
     11 H          -1.7669   -0.1978    1.3878 H       1  LIG1       0.31999999999999995
     12 H           1.4777   -0.3005    1.6078 H       1  LIG1       0.43999999999999995
@<TRIPOS>BOND
     1     7     1    1
     2     1     8    1
     3     1     6    1
     4     1     2    1
     5    10     2    1
     6     9     2    1
     7     2     3    1
     8     3     5    1
     9     3     4    1
    10     5    12    1
    11    11     4    1
