@<TRIPOS>MOLECULE
QLTCHMYAEJEXBT-ZEBDFXRSSA-N	6045133	-897.1217092741999
 34 34 0 0 0
SMALL
MULLIKEN NwChem

@<TRIPOS>ATOM
      1 C           2.4919    0.4049    1.5430 C.3     1  LIG1      -0.4900000000000002
      2 C           1.7419    2.8243    1.2622 C.3     1  LIG1      -0.45999999999999996
      3 C           0.6549   -1.8077   -1.0342 C.3     1  LIG1       -0.08000000000000007
      4 C           2.6981    1.5507   -0.6170 C.1     1  LIG1       0.3700000000000001
      5 C          -0.5242   -1.7393   -0.0452 C.3     1  LIG1       0.08000000000000007
      6 C          -1.8698   -1.3877   -0.7021 C.3     1  LIG1       0.09999999999999964
      7 C          -2.0704    0.1366   -0.8801 C.3     1  LIG1       0.08999999999999986
      8 C          -1.7717    0.8647    0.4416 C.3     1  LIG1       0.08000000000000007
      9 C          -0.3834    0.4636    0.9777 C.3     1  LIG1       0.3200000000000003
     10 C           1.8601    1.4423    0.5985 C.3     1  LIG1       0.2699999999999996
     11 N           3.3737    1.6381   -1.5554 N.1     1  LIG1        -0.54
     12 O           0.4658   -2.8649   -1.9631 O.3     1  LIG1      -0.6600000000000001
     13 O          -2.9549   -1.9549    0.0215 O.3     1  LIG1      -0.6899999999999995
     14 O          -1.3143    0.6805   -1.9507 O.3     1  LIG1      -0.6899999999999995
     15 O          -2.7838    0.4755    1.3714 O.3     1  LIG1      -0.6600000000000001
     16 O          -0.2178   -0.9136    1.1113 O.3     1  LIG1      -0.5099999999999998
     17 O           0.5654    1.0496    0.0853 O.3     1  LIG1      -0.5500000000000007
     18 H           3.5019    0.7299    1.8088 H       1  LIG1       0.18999999999999995
     19 H           2.5433   -0.5748    1.0678 H       1  LIG1       0.18999999999999995
     20 H           1.9059    0.3140    2.4609 H       1  LIG1       0.18999999999999995
     21 H           2.7258    3.1962    1.5633 H       1  LIG1       0.18999999999999995
     22 H           1.2874    3.5359    0.5681 H       1  LIG1       0.18000000000000005
     23 H           1.1148    2.7496    2.1568 H       1  LIG1       0.18999999999999995
     24 H           0.7329   -0.9013   -1.6331 H       1  LIG1       0.16000000000000003
     25 H           1.5901   -1.9206   -0.4647 H       1  LIG1       0.16000000000000003
     26 H          -0.6469   -2.7366    0.3919 H       1  LIG1       0.16000000000000003
     27 H          -1.8768   -1.8499   -1.6927 H       1  LIG1       0.16000000000000003
     28 H          -3.1265    0.2908   -1.1224 H       1  LIG1       0.16000000000000003
     29 H          -1.7812    1.9498    0.2721 H       1  LIG1       0.17000000000000004
     30 H          -0.2477    0.8663    1.9905 H       1  LIG1       0.18999999999999995
     31 H           0.4697   -3.7019   -1.4722 H       1  LIG1       0.43000000000000005
     32 H          -3.0707   -1.4088    0.8193 H       1  LIG1       0.43000000000000005
     33 H          -0.4372    0.9282   -1.6143 H       1  LIG1       0.43999999999999995
     34 H          -2.5689    0.8330    2.2472 H       1  LIG1       0.43999999999999995
@<TRIPOS>BOND
     1    12    31    1
     2    12     3    1
     3    14    33    1
     4    14     7    1
     5    27     6    1
     6    24     3    1
     7    11     4    3
     8    28     7    1
     9     3    25    1
    10     3     5    1
    11     7     6    1
    12     7     8    1
    13     6     5    1
    14     6    13    1
    15     4    10    1
    16     5    26    1
    17     5    16    1
    18    13    32    1
    19    17    10    1
    20    17     9    1
    21    29     8    1
    22     8     9    1
    23     8    15    1
    24    22     2    1
    25    10     2    1
    26    10     1    1
    27     9    16    1
    28     9    30    1
    29    19     1    1
    30     2    21    1
    31     2    23    1
    32    15    34    1
    33     1    18    1
    34     1    20    1
