@<TRIPOS>MOLECULE
QMMFVYPAHWMCMS-UHFFFAOYSA-N	6045134	-477.95718348907917
 9 8 0 0 0
SMALL
MULLIKEN NwChem

@<TRIPOS>ATOM
      1 C           0.2950   -0.8288    1.1886 C.3     1  LIG1      -0.5899999999999999
      2 C           0.2948    1.3470   -0.5341 C.3     1  LIG1      -0.5899999999999999
      3 S          -0.3935   -0.3427   -0.4327 S.3     1  LIG1      0.009999999999999787
      4 H          -0.0378   -1.8501    1.3928 H       1  LIG1       0.19999999999999996
      5 H          -0.0702   -0.1725    1.9856 H       1  LIG1       0.18999999999999995
      6 H           1.3899   -0.8110    1.1737 H       1  LIG1       0.18999999999999995
      7 H          -0.0710    1.9726    0.2870 H       1  LIG1       0.18999999999999995
      8 H           1.3897    1.3284   -0.5196 H       1  LIG1       0.18999999999999995
      9 H          -0.0374    1.7797   -1.4817 H       1  LIG1       0.19999999999999996
@<TRIPOS>BOND
     1     9     2    1
     2     2     8    1
     3     2     3    1
     4     2     7    1
     5     3     1    1
     6     6     1    1
     7     1     4    1
     8     1     5    1
