@<TRIPOS>MOLECULE
QNAYBMKLOCPYGJ-REOHCLBHSA-N	6045135	-323.6750722538618
 13 12 0 0 0
SMALL
MULLIKEN NwChem

@<TRIPOS>ATOM
      1 CB          0.3078    1.7146   -0.5220 C.3     1  ALA1      -0.45999999999999996
      2 CA         -0.2162    0.2813   -0.7120 C.3     1  ALA1       -0.04999999999999982
      3 C           0.2928   -0.5953    0.4350 C.2     1  ALA1       0.5800000000000001
      4 N          -1.6696    0.2852   -0.8246 N.3     1  ALA1        -0.75
      5 OXT        -0.3919   -1.0317    1.3346 O.2     1  ALA1      -0.5199999999999996
      6 O           1.6284   -0.8176    0.3513 O.3     1  ALA1      -0.5800000000000001
      7 HB1        -0.0745    2.1380    0.4149 H       1  ALA1       0.16000000000000003
      8 HB2        -0.0427    2.3391   -1.3480 H       1  ALA1       0.17000000000000004
      9 HB3         1.4009    1.7328   -0.4877 H       1  ALA1       0.17000000000000004
     10 HA          0.2044   -0.1220   -1.6416 H       1  ALA1       0.18000000000000005
     11 H1         -1.9959   -0.6678   -0.9825 H       1  ALA1       0.32999999999999996
     12 H2         -2.0594    0.5444    0.0824 H       1  ALA1       0.31999999999999995
     13 H           1.8698   -1.3538    1.1302 H       1  ALA1       0.44999999999999996
@<TRIPOS>BOND
     1    10     2    1
     2     8     1    1
     3    11     4    1
     4     4     2    1
     5     4    12    1
     6     2     1    1
     7     2     3    1
     8     1     9    1
     9     1     7    1
    10     6     3    1
    11     6    13    1
    12     3     5    2
