@<TRIPOS>MOLECULE
QOHGUQUQCPIROQ-DAFODLJHSA-L	6045137	-1066.9772998416524
 15 14 0 0 0
SMALL
MULLIKEN NwChem

@<TRIPOS>ATOM
      1 C           0.8424    0.1043    0.0686 C.2     1  LIG1       -0.21999999999999975
      2 C          -1.0189   -0.7404   -1.4893 C.3     1  LIG1       -0.4500000000000002
      3 C           0.2051   -1.0508   -0.6777 C.2     1  LIG1       0.46999999999999975
      4 C           0.5703    0.4516    1.3266 C.2     1  LIG1       -0.09999999999999964
      5 C          -0.6715    0.0235   -2.8506 C.2     1  LIG1       0.5300000000000002
      6 C          -0.4885   -0.1819    2.2710 C.2     1  LIG1          0.54
      7 CL          1.5543    1.8441    2.0185 Cl      1  LIG1      -0.16000000000000014
      8 O           0.8006   -2.1208   -0.7415 O.2     1  LIG1      -0.5299999999999994
      9 O          -1.5925   -0.0034   -3.7012 O.co2   1  LIG1      -0.6600000000000001
     10 O           0.4584    0.5722   -2.9115 O.co2   1  LIG1      -0.6500000000000004
     11 O          -0.5420    0.2117    3.4541 O.co2   1  LIG1      -0.6400000000000006
     12 O          -1.1750   -1.0460    1.6652 O.co2   1  LIG1      -0.6300000000000008
     13 H           1.5698    0.6392   -0.5337 H       1  LIG1       0.19999999999999996
     14 H          -1.5351   -1.6746   -1.7346 H       1  LIG1       0.15000000000000002
     15 H          -1.6983   -0.1124   -0.9034 H       1  LIG1       0.17000000000000004
@<TRIPOS>BOND
     1     9     5   ar
     2    10     5   ar
     3     5     2    1
     4    14     2    1
     5     2    15    1
     6     2     3    1
     7     8     3    2
     8     3     1    1
     9    13     1    1
    10     1     4    2
    11     4     7    1
    12     4     6    1
    13    12     6   ar
    14     6    11   ar
