@<TRIPOS>MOLECULE
QOUSHGMTBIIAHR-KEOHHSTQSA-J	11085209	-2669.426804925328
 58 60 0 0 0
SMALL
MULLIKEN NwChem

@<TRIPOS>ATOM
      1 C           5.8451   -0.1574    2.0068 C.3     1  LIG1       -0.05999999999999961
      2 C          -6.6095   -0.4683   -0.3580 C.3     1  LIG1       -0.019999999999999574
      3 C           0.9728   -0.4746   -0.9587 C.2     1  LIG1       0.28000000000000025
      4 C          -3.0828   -2.3548   -1.8849 C.ar    1  LIG1       0.20999999999999996
      5 C           5.2063    0.3313    0.6896 C.3     1  LIG1       0.09999999999999964
      6 C          -5.4013   -0.3597    0.5807 C.3     1  LIG1       0.08999999999999986
      7 C          -1.0291   -2.2650   -2.5343 C.ar    1  LIG1       0.13999999999999968
      8 C           4.9587    1.8601    0.5712 C.3     1  LIG1       0.16000000000000014
      9 C          -4.6856    1.0115    0.5698 C.3     1  LIG1       0.09999999999999964
     10 C           3.7653    1.9016   -0.4763 C.3     1  LIG1       0.05999999999999961
     11 C          -3.3651    0.7088   -0.1766 C.3     1  LIG1       0.1200000000000001
     12 C           0.0735   -2.5939   -3.4356 C.2     1  LIG1       0.5099999999999998
     13 C          -1.1254   -1.3920   -1.4237 C.ar    1  LIG1       0.4900000000000002
     14 C           3.2253    0.4478   -0.4889 C.3     1  LIG1       0.28000000000000025
     15 C          -3.1384   -0.7930    0.0917 C.3     1  LIG1       0.28000000000000025
     16 N          -0.2596   -3.5641   -4.3769 N.am    1  LIG1      -0.7599999999999998
     17 N          -0.3148   -0.5336   -0.7161 N.2     1  LIG1      -0.6500000000000004
     18 N           1.7845    0.3496   -0.2853 N.pl3   1  LIG1      -0.5800000000000001
     19 N          -2.2719   -2.8411   -2.7913 N.ar    1  LIG1      -0.5800000000000001
     20 N          -2.4527   -1.4895   -1.0332 N.ar    1  LIG1         -0.5
     21 O           6.0028    2.5926    0.1092 O.3     1  LIG1      -0.7799999999999994
     22 O          -4.4926    1.4863    1.8746 O.3     1  LIG1      -0.7400000000000002
     23 O           4.3252    2.2919   -1.7011 O.3     1  LIG1      -0.7300000000000004
     24 O          -2.2694    1.5179    0.1895 O.3     1  LIG1      -0.7100000000000009
     25 O           1.2144   -2.1148   -3.4214 O.2     1  LIG1      -0.5899999999999999
     26 O           8.7203   -0.1188   -0.0481 O.2     1  LIG1      -0.7200000000000006
     27 O           7.9720    1.6832    1.6695 O.3     1  LIG1      -0.7799999999999994
     28 O           9.5523   -0.1643    2.4496 O.3     1  LIG1      -0.7100000000000009
     29 O          -7.0837    1.5913    2.2041 O.3     1  LIG1      -0.7899999999999991
     30 O          -8.2331   -0.7258    2.0056 O.3     1  LIG1      -0.7899999999999991
     31 O          -9.4936    1.4518    1.2548 O.2     1  LIG1        -0.75
     32 O           7.1167   -0.7529    1.8795 O.3     1  LIG1      -0.6199999999999992
     33 O          -7.5310    0.5534   -0.1492 O.3     1  LIG1      -0.6500000000000004
     34 O           3.8802   -0.2596    0.5541 O.3     1  LIG1      -0.5500000000000007
     35 O          -4.3933   -1.3829    0.2209 O.3     1  LIG1      -0.5600000000000005
     36 P           8.4948    0.1521    1.4202 P.3     1  LIG1       1.0199999999999996
     37 P          -8.1811    0.7254    1.5155 P.3     1  LIG1           1.0
     38 H           5.8795    0.6846    2.7158 H       1  LIG1          0.14
     39 H           5.1769   -0.9237    2.4283 H       1  LIG1       0.15000000000000002
     40 H          -7.0493   -1.4731   -0.2162 H       1  LIG1       0.10999999999999999
     41 H          -6.2350   -0.4070   -1.4022 H       1  LIG1          0.12
     42 H           1.4521   -1.0685   -1.7391 H       1  LIG1       0.22999999999999998
     43 H          -4.1319   -2.5744   -1.7662 H       1  LIG1       0.19999999999999996
     44 H           5.8423    0.0172   -0.1502 H       1  LIG1          0.12
     45 H          -5.7377   -0.5806    1.5934 H       1  LIG1       0.15000000000000002
     46 H           4.5520    2.1941    1.5587 H       1  LIG1       0.06999999999999995
     47 H          -5.2954    1.7148   -0.0146 H       1  LIG1          0.13
     48 H           2.9594    2.5957   -0.1699 H       1  LIG1          0.12
     49 H          -3.5780    0.7922   -1.2595 H       1  LIG1          0.14
     50 H           3.4431    0.0021   -1.4705 H       1  LIG1       0.16000000000000003
     51 H          -2.5064   -0.9233    0.9827 H       1  LIG1       0.17000000000000004
     52 H          -1.2558   -3.7060   -4.5026 H       1  LIG1          0.36
     53 H           0.3273   -3.5489   -5.1994 H       1  LIG1          0.35
     54 H           1.3872    0.8794    0.4840 H       1  LIG1          0.37
     55 H           7.3236    2.0108    0.9641 H       1  LIG1       0.43000000000000005
     56 H          -5.4723    1.5658    2.1704 H       1  LIG1       0.43000000000000005
     57 H           5.2474    2.5607   -1.3403 H       1  LIG1          0.39
     58 H          -1.4703    1.0215   -0.0828 H       1  LIG1       0.43000000000000005
@<TRIPOS>BOND
     1    53    16    1
     2    52    16    1
     3    16    12   am
     4    12    25    2
     5    12     7    1
     6    19     7   ar
     7    19     4   ar
     8     7    13   ar
     9     4    43    1
    10     4    20   ar
    11    42     3    1
    12    23    57    1
    13    23    10    1
    14    50    14    1
    15    13    20   ar
    16    13    17    1
    17    41     2    1
    18    49    11    1
    19    20    15    1
    20     3    17    2
    21     3    18    1
    22    14    10    1
    23    14    18    1
    24    14    34    1
    25    10    48    1
    26    10     8    1
    27     2    40    1
    28     2    33    1
    29     2     6    1
    30    18    54    1
    31    11    15    1
    32    11    24    1
    33    11     9    1
    34    44     5    1
    35    33    37    1
    36    58    24    1
    37    26    36    2
    38    47     9    1
    39    15    35    1
    40    15    51    1
    41    21     8    1
    42    35     6    1
    43    34     5    1
    44     9     6    1
    45     9    22    1
    46     8     5    1
    47     8    46    1
    48     6    45    1
    49     5     1    1
    50    55    27    1
    51    31    37    2
    52    36    27    1
    53    36    32    1
    54    36    28    1
    55    37    30    1
    56    37    29    1
    57    22    56    1
    58    32     1    1
    59     1    39    1
    60     1    38    1
