@<TRIPOS>MOLECULE
QPRQEDXDYOZYLA-UHFFFAOYSA-N	6045139	-272.85242851089174
 18 17 0 0 0
SMALL
MULLIKEN NwChem

@<TRIPOS>ATOM
      1 C           0.2813   -0.3666   -2.3527 C.3     1  LIG1      -0.45999999999999996
      2 C          -0.2512    1.8247   -0.1841 C.3     1  LIG1      -0.46999999999999975
      3 C          -0.2382   -0.6201   -0.9329 C.3     1  LIG1      -0.2599999999999998
      4 C          -0.2098   -0.0081    1.5299 C.3     1  LIG1       -0.04999999999999982
      5 C           0.2377    0.4008    0.1165 C.3     1  LIG1      -0.08000000000000007
      6 O           0.2983   -1.2691    1.9545 O.3     1  LIG1      -0.6699999999999999
      7 H          -0.1029    0.5720   -2.7663 H       1  LIG1       0.15000000000000002
      8 H          -0.0199   -1.1727   -3.0311 H       1  LIG1       0.15000000000000002
      9 H           1.3769   -0.3126   -2.3635 H       1  LIG1       0.15000000000000002
     10 H          -1.3479    1.8611   -0.2313 H       1  LIG1       0.15000000000000002
     11 H           0.0720    2.5261    0.5946 H       1  LIG1       0.15000000000000002
     12 H           0.1348    2.1946   -1.1390 H       1  LIG1       0.16000000000000003
     13 H          -1.3391   -0.6392   -0.9405 H       1  LIG1          0.13
     14 H           0.0918   -1.6204   -0.6203 H       1  LIG1          0.13
     15 H           0.1681    0.7185    2.2578 H       1  LIG1       0.15000000000000002
     16 H          -1.3125    0.0178    1.5885 H       1  LIG1          0.13
     17 H           1.3379    0.3953    0.1176 H       1  LIG1          0.12
     18 H          -0.1809   -1.9588    1.4726 H       1  LIG1       0.43000000000000005
@<TRIPOS>BOND
     1     8     1    1
     2     7     1    1
     3     9     1    1
     4     1     3    1
     5    12     2    1
     6    13     3    1
     7     3    14    1
     8     3     5    1
     9    10     2    1
    10     2     5    1
    11     2    11    1
    12     5    17    1
    13     5     4    1
    14    18     6    1
    15     4    16    1
    16     4     6    1
    17     4    15    1
