@<TRIPOS>MOLECULE
QPVLKMICBYRPSX-KQYNXXCUSA-N	6045140	-987.3723740814941
 31 33 0 0 0
SMALL
MULLIKEN NwChem

@<TRIPOS>ATOM
      1 C           0.7480    3.3640   -1.8625 C.3     1  LIG1       0.019999999999999574
      2 C          -1.5416   -3.2492    1.3913 C.ar    1  LIG1       0.16000000000000014
      3 C           1.2036   -0.8853   -1.0221 C.ar    1  LIG1       0.21999999999999975
      4 C          -0.3667    2.8682   -0.9509 C.3     1  LIG1       0.11000000000000032
      5 C           0.5152   -2.7276   -0.2190 C.ar    1  LIG1       0.17999999999999972
      6 C          -0.0405    3.0356    0.5429 C.3     1  LIG1       0.04999999999999982
      7 C           0.4763    1.6387    0.9240 C.3     1  LIG1       0.09999999999999964
      8 C           0.2456   -4.0550    0.1736 C.ar    1  LIG1       0.4900000000000002
      9 C          -0.3494   -1.7535    0.2905 C.ar    1  LIG1       0.5300000000000002
     10 C          -0.4225    0.7482    0.0356 C.3     1  LIG1       0.2699999999999996
     11 F           0.8548    4.7440   -1.7102 F       1  LIG1      -0.33000000000000007
     12 N           1.0243   -5.0967   -0.2188 N.pl3   1  LIG1        -0.79
     13 N          -0.8013   -4.2939    0.9840 N.ar    1  LIG1      -0.5499999999999998
     14 N          -1.3948   -1.9519    1.1021 N.ar    1  LIG1        -0.54
     15 N           1.4777   -2.1666   -1.0436 N.ar    1  LIG1      -0.5700000000000003
     16 N           0.1100   -0.5612   -0.2364 N.ar    1  LIG1      -0.5099999999999998
     17 O          -1.2128    3.2284    1.3340 O.3     1  LIG1      -0.6799999999999997
     18 O           0.4342    1.3411    2.2889 O.3     1  LIG1      -0.6600000000000001
     19 O          -0.5369    1.4615   -1.1940 O.3     1  LIG1      -0.5399999999999991
     20 H           0.5216    3.1291   -2.9079 H       1  LIG1       0.17000000000000004
     21 H           1.7062    2.9024   -1.5922 H       1  LIG1       0.17000000000000004
     22 H          -2.3751   -3.4985    2.0446 H       1  LIG1       0.17000000000000004
     23 H           1.7323   -0.1220   -1.5758 H       1  LIG1       0.21999999999999997
     24 H          -1.2960    3.3982   -1.1951 H       1  LIG1       0.17000000000000004
     25 H           0.6927    3.8321    0.7154 H       1  LIG1       0.18000000000000005
     26 H           1.5148    1.5202    0.5944 H       1  LIG1       0.18999999999999995
     27 H          -1.3972    0.6001    0.5149 H       1  LIG1       0.18000000000000005
     28 H           1.6814   -4.9517   -0.9712 H       1  LIG1          0.38
     29 H           0.6735   -6.0296   -0.0575 H       1  LIG1          0.37
     30 H          -1.4817    4.1570    1.2770 H       1  LIG1       0.44999999999999996
     31 H          -0.3970    1.7221    2.6238 H       1  LIG1       0.43000000000000005
@<TRIPOS>BOND
     1    20     1    1
     2     1    11    1
     3     1    21    1
     4     1     4    1
     5    23     3    1
     6    24     4    1
     7    19     4    1
     8    19    10    1
     9    15     3   ar
    10    15     5   ar
    11     3    16   ar
    12    28    12    1
    13     4     6    1
    14    16    10    1
    15    16     9   ar
    16     5     8   ar
    17     5     9   ar
    18    12    29    1
    19    12     8    1
    20    10    27    1
    21    10     7    1
    22     8    13   ar
    23     9    14   ar
    24     6    25    1
    25     6     7    1
    26     6    17    1
    27    26     7    1
    28     7    18    1
    29    13     2   ar
    30    14     2   ar
    31    30    17    1
    32     2    22    1
    33    18    31    1
