@<TRIPOS>MOLECULE
QQAHQUBHRBQWBL-UHFFFAOYSA-M	6045141	-1301.3274661249397
 13 13 0 0 0
SMALL
MULLIKEN NwChem

@<TRIPOS>ATOM
      1 C          -1.3055    1.2115    0.0012 C.2     1  LIG1       -0.28000000000000025
      2 C          -1.3137   -1.2156    0.0006 C.2     1  LIG1       -0.29000000000000004
      3 C          -2.1054    0.0007    0.0013 C.2     1  LIG1       0.41999999999999993
      4 C           0.0777    1.1848    0.0002 C.2     1  LIG1       -0.1200000000000001
      5 C           0.0677   -1.1729   -0.0003 C.2     1  LIG1       -0.1200000000000001
      6 C           0.8336    0.0025   -0.0006 C.3     1  LIG1       0.2999999999999998
      7 CL          0.9713    2.7336    0.0001 Cl      1  LIG1      -0.08999999999999986
      8 CL          0.9874   -2.7330   -0.0013 Cl      1  LIG1      -0.08999999999999986
      9 O          -3.3660    0.0033    0.0021 O.2     1  LIG1      -0.7599999999999998
     10 O           2.2171    0.0416   -0.0015 O.3     1  LIG1      -0.6799999999999997
     11 H          -1.8305    2.1610    0.0018 H       1  LIG1          0.13
     12 H          -1.8377   -2.1653    0.0007 H       1  LIG1          0.13
     13 H           2.5142   -0.8826   -0.0025 H       1  LIG1       0.44999999999999996
@<TRIPOS>BOND
     1    13    10    1
     2    10     6    1
     3     8     5    1
     4     6     5    1
     5     6     4    1
     6     5     2    2
     7     7     4    1
     8     4     1    2
     9     2    12    1
    10     2     3    1
    11     1     3    1
    12     1    11    1
    13     3     9    2
