@<TRIPOS>MOLECULE
QRHSEDZBZMZPOA-ZJSQCTGTSA-M	11085208	-1005.2033228054087
 53 52 0 0 0
SMALL
MULLIKEN NwChem

@<TRIPOS>ATOM
      1 C          -7.5940    0.5763    0.6462 C.3     1  LIG1      -0.4500000000000002
      2 C          -6.5799   -0.5621    0.4376 C.3     1  LIG1      -0.3099999999999996
      3 C          -6.8131   -1.3012   -0.8536 C.2     1  LIG1      -0.1200000000000001
      4 C          -5.9954   -1.3975   -1.9082 C.2     1  LIG1      -0.1299999999999999
      5 C          -4.6086   -0.8134   -2.0533 C.3     1  LIG1      -0.3600000000000003
      6 C           3.4740    2.1093   -0.7584 C.3     1  LIG1      -0.2599999999999998
      7 C          -3.5624   -1.8983   -2.1911 C.2     1  LIG1      -0.1200000000000001
      8 C           2.1434    2.7064   -0.2587 C.3     1  LIG1      -0.2599999999999998
      9 C           4.0835    1.0447    0.1602 C.3     1  LIG1      -0.2599999999999998
     10 C          -2.6263   -2.2129   -1.2876 C.2     1  LIG1      -0.13999999999999968
     11 C           1.0767    1.6752    0.1467 C.3     1  LIG1      -0.2699999999999996
     12 C           5.4697    0.5680   -0.2850 C.3     1  LIG1      -0.23000000000000043
     13 C          -2.3974   -1.5215    0.0330 C.3     1  LIG1      -0.33999999999999986
     14 C           0.7184    0.6866   -0.9734 C.3     1  LIG1      -0.3099999999999996
     15 C           6.0257   -0.5349    0.6201 C.3     1  LIG1       -0.3700000000000001
     16 C          -1.5329   -0.2395   -0.0675 C.3     1  LIG1       0.1299999999999999
     17 C          -0.1032   -0.5406   -0.5524 C.3     1  LIG1       0.1200000000000001
     18 C           6.3285   -0.0852    2.1043 C.2     1  LIG1       0.5199999999999996
     19 O          -1.5141    0.4207    1.1905 O.3     1  LIG1      -0.6799999999999997
     20 O           0.5103   -1.2552    0.5328 O.3     1  LIG1      -0.6899999999999995
     21 O           6.6204   -1.0249    2.8793 O.co2   1  LIG1      -0.6899999999999995
     22 O           6.2579    1.1540    2.3305 O.co2   1  LIG1      -0.6699999999999999
     23 H          -8.6235    0.1973    0.6236 H       1  LIG1       0.15000000000000002
     24 H          -7.5000    1.3288   -0.1449 H       1  LIG1       0.15000000000000002
     25 H          -7.4383    1.0725    1.6110 H       1  LIG1       0.15000000000000002
     26 H          -5.5633   -0.1585    0.4860 H       1  LIG1       0.16000000000000003
     27 H          -6.6660   -1.2715    1.2741 H       1  LIG1       0.15000000000000002
     28 H          -7.7837   -1.7975   -0.9204 H       1  LIG1          0.13
     29 H          -6.3339   -1.9843   -2.7638 H       1  LIG1          0.13
     30 H          -4.3720   -0.1522   -1.2166 H       1  LIG1       0.17000000000000004
     31 H          -4.5846   -0.1856   -2.9581 H       1  LIG1       0.16000000000000003
     32 H           3.3393    1.6904   -1.7681 H       1  LIG1          0.13
     33 H           4.1966    2.9290   -0.8768 H       1  LIG1          0.12
     34 H          -3.6171   -2.4821   -3.1111 H       1  LIG1          0.14
     35 H           2.3483    3.3364    0.6177 H       1  LIG1          0.13
     36 H           1.7308    3.3751   -1.0306 H       1  LIG1          0.13
     37 H           3.4123    0.1690    0.2106 H       1  LIG1          0.13
     38 H           4.1896    1.4246    1.1822 H       1  LIG1          0.13
     39 H          -1.9378   -3.0216   -1.5320 H       1  LIG1          0.14
     40 H           1.4461    1.1150    1.0130 H       1  LIG1          0.14
     41 H           0.1685    2.1839    0.4863 H       1  LIG1          0.14
     42 H           6.1539    1.4244   -0.2380 H       1  LIG1       0.10999999999999999
     43 H           5.4225    0.2334   -1.3370 H       1  LIG1       0.10999999999999999
     44 H          -1.8968   -2.2021    0.7307 H       1  LIG1          0.14
     45 H          -3.3456   -1.2285    0.4969 H       1  LIG1       0.16000000000000003
     46 H           0.1792    1.2032   -1.7804 H       1  LIG1       0.15000000000000002
     47 H           1.6419    0.3057   -1.4295 H       1  LIG1       0.15000000000000002
     48 H           6.9637   -0.9286    0.2001 H       1  LIG1          0.12
     49 H           5.3354   -1.3922    0.6556 H       1  LIG1          0.12
     50 H          -2.0042    0.4478   -0.7819 H       1  LIG1       0.15000000000000002
     51 H          -0.1816   -1.2045   -1.4285 H       1  LIG1          0.13
     52 H          -0.7795    0.0016    1.6751 H       1  LIG1       0.42000000000000004
     53 H           1.4738   -1.1569    0.4679 H       1  LIG1       0.43999999999999995
@<TRIPOS>BOND
     1    34     7    1
     2    31     5    1
     3    29     4    1
     4     7     5    1
     5     7    10    2
     6     5     4    1
     7     5    30    1
     8     4     3    2
     9    46    14    1
    10    32     6    1
    11    39    10    1
    12    47    14    1
    13    51    17    1
    14    43    12    1
    15    10    13    1
    16    36     8    1
    17    14    17    1
    18    14    11    1
    19    28     3    1
    20    33     6    1
    21     3     2    1
    22    50    16    1
    23     6     8    1
    24     6     9    1
    25    17    16    1
    26    17    20    1
    27    12    42    1
    28    12     9    1
    29    12    15    1
    30     8    11    1
    31     8    35    1
    32    24     1    1
    33    16    13    1
    34    16    19    1
    35    13    45    1
    36    13    44    1
    37    11    41    1
    38    11    40    1
    39     9    37    1
    40     9    38    1
    41    48    15    1
    42     2    26    1
    43     2     1    1
    44     2    27    1
    45    53    20    1
    46    15    49    1
    47    15    18    1
    48    23     1    1
    49     1    25    1
    50    19    52    1
    51    18    22   ar
    52    18    21   ar
