@<TRIPOS>MOLECULE
QRMZSPFSDQBLIX-UHFFFAOYSA-M	6045143	-649.2649807492755
 22 22 0 0 0
SMALL
MULLIKEN NwChem

@<TRIPOS>ATOM
      1 C          -0.0052   -3.5392   -0.8708 C.3     1  LIG1       -0.21999999999999975
      2 C           0.5687    0.7984    1.5334 C.2     1  LIG1      -0.20000000000000018
      3 C           1.0909   -0.4298    1.9168 C.2     1  LIG1      -0.2599999999999998
      4 C          -0.8730   -0.3055   -0.0398 C.2     1  LIG1      -0.2599999999999998
      5 C          -0.9816    2.2332    0.1020 C.3     1  LIG1       -0.41999999999999993
      6 C          -0.4352    0.8933    0.5583 C.3     1  LIG1       0.11000000000000032
      7 C           0.6523   -1.6901    1.3667 C.2     1  LIG1       0.3600000000000003
      8 C          -0.3714   -1.5382    0.3393 C.2     1  LIG1       0.2400000000000002
      9 C          -0.3026    2.6607   -1.1793 C.2     1  LIG1       0.5800000000000001
     10 O           1.1068   -2.8136    1.7436 O.2     1  LIG1      -0.7599999999999998
     11 O          -0.7164    2.4938   -2.3108 O.2     1  LIG1      -0.5199999999999996
     12 O           0.9148    3.2386   -0.9514 O.3     1  LIG1      -0.5899999999999999
     13 O          -0.9424   -2.6595   -0.2626 O.2     1  LIG1      -0.5600000000000005
     14 H          -0.5815   -4.3886   -1.2600 H       1  LIG1       0.15000000000000002
     15 H           0.7348   -3.8773   -0.1391 H       1  LIG1       0.15000000000000002
     16 H           0.5092   -3.0480   -1.7157 H       1  LIG1          0.13
     17 H           0.9408    1.7119    2.0014 H       1  LIG1       0.10999999999999999
     18 H           1.8518   -0.4899    2.6937 H       1  LIG1       0.07999999999999996
     19 H          -1.6349   -0.2840   -0.8185 H       1  LIG1       0.10999999999999999
     20 H          -2.0559    2.1836   -0.1105 H       1  LIG1       0.17000000000000004
     21 H          -0.8077    2.9998    0.8669 H       1  LIG1       0.18000000000000005
     22 H           1.3031    3.3619   -1.8369 H       1  LIG1       0.43999999999999995
@<TRIPOS>BOND
     1    11     9    2
     2    22    12    1
     3    16     1    1
     4    14     1    1
     5     9    12    1
     6     9     5    1
     7     1    13    1
     8     1    15    1
     9    19     4    1
    10    13     8    1
    11    20     5    1
    12     4     8    2
    13     4     6    1
    14     5     6    1
    15     5    21    1
    16     8     7    1
    17     6     2    1
    18     7    10    2
    19     7     3    1
    20     2     3    2
    21     2    17    1
    22     3    18    1
