@<TRIPOS>MOLECULE
QSHWIQZFGQKFMA-UHFFFAOYSA-M	6045145	-799.276057887944
 29 29 0 0 0
SMALL
MULLIKEN NwChem

@<TRIPOS>ATOM
      1 C           0.7099    0.2434   -1.8374 C.3     1  LIG1      -0.33999999999999986
      2 C           0.6349   -0.8805   -2.8842 C.3     1  LIG1       -0.33000000000000007
      3 C           0.0420    2.0927    0.7290 C.3     1  LIG1       -0.4299999999999997
      4 C          -0.2942    0.0820    3.2426 C.3     1  LIG1       -0.21999999999999975
      5 C           0.4845   -1.5314    0.0228 C.ar    1  LIG1       -0.05999999999999961
      6 C           0.4712   -0.2245   -0.4238 C.ar    1  LIG1      0.04999999999999982
      7 C           0.2057    0.5931    0.7232 C.ar    1  LIG1      -0.009999999999999787
      8 C           0.0576   -0.2350    1.8275 C.ar    1  LIG1       0.2699999999999996
      9 C           1.8686   -1.8547   -2.7827 C.2     1  LIG1       0.5099999999999998
     10 C          -1.4268    2.4364    0.6033 C.2     1  LIG1       0.5899999999999999
     11 N          -1.7394   -0.1075    3.5042 N.3     1  LIG1      -0.7800000000000002
     12 N           0.2363   -1.5221    1.3769 N.ar    1  LIG1      -0.6299999999999999
     13 O           1.6097   -3.0517   -2.4771 O.co2   1  LIG1      -0.6699999999999999
     14 O           2.9771   -1.3080   -2.9978 O.co2   1  LIG1      -0.6699999999999999
     15 O          -2.2457    2.4094    1.5043 O.2     1  LIG1      -0.5099999999999998
     16 O          -1.7818    2.7494   -0.6675 O.3     1  LIG1      -0.5700000000000003
     17 H          -0.0111    1.0436   -2.0687 H       1  LIG1          0.14
     18 H           1.7142    0.6836   -1.9248 H       1  LIG1          0.14
     19 H          -0.3059   -1.4361   -2.7786 H       1  LIG1       0.10999999999999999
     20 H           0.6527   -0.4192   -3.8817 H       1  LIG1          0.12
     21 H           0.3918    2.5266    1.6724 H       1  LIG1       0.18999999999999995
     22 H           0.5988    2.5433   -0.0968 H       1  LIG1       0.18999999999999995
     23 H           0.2560   -0.5829    3.9254 H       1  LIG1       0.16000000000000003
     24 H           0.0548    1.1074    3.4596 H       1  LIG1       0.15000000000000002
     25 H           0.7002   -2.4324   -0.5421 H       1  LIG1       0.17000000000000004
     26 H          -1.9463    0.2403    4.4430 H       1  LIG1       0.31999999999999995
     27 H          -2.2351    0.5181    2.8669 H       1  LIG1       0.31999999999999995
     28 H           0.1381   -2.3425    1.9541 H       1  LIG1          0.37
     29 H          -2.7519    2.8529   -0.6560 H       1  LIG1       0.43999999999999995
@<TRIPOS>BOND
     1    20     2    1
     2    14     9   ar
     3     2     9    1
     4     2    19    1
     5     2     1    1
     6     9    13   ar
     7    17     1    1
     8    18     1    1
     9     1     6    1
    10    16    29    1
    11    16    10    1
    12    25     5    1
    13     6     5   ar
    14     6     7   ar
    15    22     3    1
    16     5    12   ar
    17    10     3    1
    18    10    15    2
    19     7     3    1
    20     7     8   ar
    21     3    21    1
    22    12     8   ar
    23    12    28    1
    24     8     4    1
    25    27    11    1
    26     4    24    1
    27     4    11    1
    28     4    23    1
    29    11    26    1
