@<TRIPOS>MOLECULE
QSJXEFYPDANLFS-UHFFFAOYSA-N	6045146	-306.4157863211126
 12 11 0 0 0
SMALL
MULLIKEN NwChem

@<TRIPOS>ATOM
      1 C           0.9307    0.1168   -1.7575 C.3     1  LIG1       -0.5499999999999998
      2 C          -0.9307   -0.1168    1.7574 C.3     1  LIG1       -0.5499999999999998
      3 C           0.4478   -0.4554   -0.4434 C.2     1  LIG1       0.41000000000000014
      4 C          -0.4477    0.4555    0.4435 C.2     1  LIG1       0.41000000000000014
      5 O           0.7263   -1.5762   -0.0621 O.2     1  LIG1      -0.46000000000000085
      6 O          -0.7263    1.5762    0.0621 O.2     1  LIG1      -0.46000000000000085
      7 H           0.5787    1.1367   -1.9140 H       1  LIG1       0.18999999999999995
      8 H           0.5823   -0.5283   -2.5717 H       1  LIG1       0.20999999999999996
      9 H           2.0258    0.0917   -1.7712 H       1  LIG1       0.19999999999999996
     10 H          -0.5824    0.5283    2.5717 H       1  LIG1       0.20999999999999996
     11 H          -2.0259   -0.0917    1.7711 H       1  LIG1       0.19999999999999996
     12 H          -0.5787   -1.1367    1.9140 H       1  LIG1       0.18999999999999995
@<TRIPOS>BOND
     1     8     1    1
     2     7     1    1
     3     9     1    1
     4     1     3    1
     5     3     5    2
     6     3     4    1
     7     6     4    2
     8     4     2    1
     9     2    11    1
    10     2    12    1
    11     2    10    1
