@<TRIPOS>MOLECULE
QTBSBXVTEAMEQO-UHFFFAOYSA-M	6045147	-228.58691268848384
 7 6 0 0 0
SMALL
MULLIKEN NwChem

@<TRIPOS>ATOM
      1 C           0.4336   -1.0010    0.7786 C.3     1  LIG1             -0.54
      2 C          -0.0818    0.1688   -0.1432 C.2     1  LIG1           0.5
      3 O          -0.7960   -0.1751   -1.1180 O.co2   1  LIG1      -0.6799999999999997
      4 O           0.2932    1.3136    0.2180 O.co2   1  LIG1      -0.6799999999999997
      5 H           0.0849   -1.9845    0.4369 H       1  LIG1          0.12
      6 H           0.0975   -0.8390    1.8133 H       1  LIG1          0.14
      7 H           1.5333   -0.9976    0.8056 H       1  LIG1           0.14
@<TRIPOS>BOND
     1     3     2   ar
     2     2     4   ar
     3     2     1    1
     4     5     1    1
     5     1     7    1
     6     1     6    1
