@<TRIPOS>MOLECULE
QTTNOSKSLATGQB-UHFFFAOYSA-F	6045148	-2969.0859238259163
 96 100 0 0 0
SMALL
MULLIKEN NwChem

@<TRIPOS>ATOM
      1 C          -3.9115   -3.2327    1.8537 C.3     1  LIG1      -0.33999999999999986
      2 C           0.1322    3.3885    4.7952 C.3     1  LIG1      -0.33000000000000007
      3 C          -1.2019   -1.1921   -5.4953 C.3     1  LIG1      -0.34999999999999964
      4 C           5.1776   -0.5470   -0.5700 C.3     1  LIG1      -0.34999999999999964
      5 C          -4.4269   -4.6284    1.4333 C.3     1  LIG1       -0.34999999999999964
      6 C          -0.5776    4.7599    4.6759 C.3     1  LIG1       -0.3700000000000001
      7 C          -1.4804   -0.2664   -6.7043 C.3     1  LIG1       -0.3600000000000003
      8 C           6.5477    0.1744   -0.5105 C.3     1  LIG1       -0.3600000000000003
      9 C          -3.9869   -3.2253   -1.5693 C.3     1  LIG1       -0.4400000000000004
     10 C          -2.4506    1.4633    5.0879 C.3     1  LIG1       -0.4800000000000004
     11 C           1.8849   -0.2468   -5.4690 C.3     1  LIG1       -0.46999999999999975
     12 C           4.5476    0.5531    2.3957 C.3     1  LIG1       -0.46999999999999975
     13 C          -2.2787   -0.6879    2.6540 C.2     1  LIG1      -0.41000000000000014
     14 C          -2.3303   -0.5686   -2.4091 C.2     1  LIG1      -0.4400000000000004
     15 C           1.7822    2.2988    2.1713 C.2     1  LIG1      -0.4299999999999997
     16 C           2.6477    0.4846   -2.4537 C.2     1  LIG1      -0.4299999999999997
     17 C          -3.2712   -2.2918    0.8292 C.ar    1  LIG1          0.0
     18 C          -0.2857    2.2907    3.8305 C.ar    1  LIG1          0.0
     19 C          -0.4539   -0.6329   -4.2961 C.ar    1  LIG1      0.009999999999999787
     20 C           3.9565    0.2653   -0.1566 C.ar    1  LIG1      0.009999999999999787
     21 C          -3.2885   -2.2737   -0.6241 C.ar    1  LIG1      0.009999999999999787
     22 C          -1.4757    1.4684    3.9301 C.ar    1  LIG1      0.040000000000000036
     23 C           0.9464   -0.2581   -4.2866 C.ar    1  LIG1      0.040000000000000036
     24 C           3.6911    0.7776    1.1741 C.ar    1  LIG1      0.04999999999999982
     25 C          -2.5530   -1.1707    1.2398 C.ar    1  LIG1       0.2599999999999998
     26 C          -0.9230   -0.5175   -2.9871 C.ar    1  LIG1       0.23000000000000043
     27 C           0.4551    1.8233    2.7480 C.ar    1  LIG1       0.2599999999999998
     28 C           2.8805    0.6225   -0.9656 C.ar    1  LIG1       0.23000000000000043
     29 C          -2.5619   -1.1613   -1.0343 C.ar    1  LIG1       0.23000000000000043
     30 C          -1.4262    0.5410    2.8905 C.ar    1  LIG1       0.23000000000000043
     31 C           1.2910    0.0372   -2.9769 C.ar    1  LIG1          0.25
     32 C           2.4772    1.4431    1.1352 C.ar    1  LIG1       0.21999999999999975
     33 C          -4.8163   -5.5837    2.6285 C.2     1  LIG1       0.5099999999999998
     34 C          -0.2057    5.8276    5.7717 C.2     1  LIG1       0.5099999999999998
     35 C          -1.9890   -0.9852   -8.0135 C.2     1  LIG1       0.5099999999999998
     36 C           7.8023   -0.6721   -0.9539 C.2     1  LIG1       0.5199999999999996
     37 C          -5.4682   -2.8599   -2.0035 C.2     1  LIG1       0.5099999999999998
     38 C          -3.7264    2.4101    5.1895 C.2     1  LIG1       0.5300000000000002
     39 C           2.3033    1.1372   -6.1296 C.2     1  LIG1       0.5199999999999996
     40 C           5.5089    1.7092    2.9073 C.2     1  LIG1       0.5300000000000002
     41 N          -2.1042   -0.5145    0.1084 N.ar    1  LIG1      -0.7000000000000002
     42 N          -0.2611    0.7883    2.1737 N.ar    1  LIG1      -0.7000000000000002
     43 N           0.1440   -0.0830   -2.2085 N.ar    1  LIG1      -0.7000000000000002
     44 N           1.9802    1.3123   -0.1605 N.ar    1  LIG1      -0.6799999999999997
     45 O          -5.8456   -6.3057    2.4668 O.co2   1  LIG1      -0.6999999999999993
     46 O          -4.0378   -5.5990    3.6238 O.co2   1  LIG1      -0.6799999999999997
     47 O           0.1941    5.4074    6.8964 O.co2   1  LIG1      -0.6799999999999997
     48 O          -0.3703    7.0417    5.4366 O.co2   1  LIG1      -0.6999999999999993
     49 O          -1.6221   -2.1815   -8.1957 O.co2   1  LIG1      -0.6799999999999997
     50 O          -2.6852   -0.2774   -8.8037 O.co2   1  LIG1      -0.6999999999999993
     51 O           7.6994   -1.9314   -0.9429 O.co2   1  LIG1      -0.6799999999999997
     52 O           8.8367   -0.0019   -1.2517 O.co2   1  LIG1      -0.6999999999999993
     53 O          -5.6619   -1.6737   -2.3713 O.co2   1  LIG1      -0.6699999999999999
     54 O          -6.2927   -3.8210   -2.0020 O.co2   1  LIG1      -0.6899999999999995
     55 O          -4.4159    2.1814    6.2295 O.co2   1  LIG1      -0.6899999999999995
     56 O          -3.9316    3.2600    4.2916 O.co2   1  LIG1      -0.6699999999999999
     57 O           2.3652    2.1454   -5.3811 O.co2   1  LIG1      -0.6600000000000001
     58 O           2.6094    1.0613   -7.3551 O.co2   1  LIG1      -0.6899999999999995
     59 O           6.5780    1.3015    3.4504 O.co2   1  LIG1      -0.6999999999999993
     60 O           5.0938    2.8898    2.7963 O.co2   1  LIG1      -0.6600000000000001
     61 H          -3.1941   -3.4102    2.6679 H       1  LIG1          0.13
     62 H          -4.7513   -2.7016    2.3399 H       1  LIG1          0.13
     63 H          -0.0229    3.0496    5.8292 H       1  LIG1          0.12
     64 H           1.2168    3.5455    4.7010 H       1  LIG1          0.13
     65 H          -0.6365   -2.0437   -5.9002 H       1  LIG1          0.13
     66 H          -2.1572   -1.6177   -5.1574 H       1  LIG1          0.13
     67 H           5.2685   -1.4463    0.0543 H       1  LIG1          0.13
     68 H           5.0285   -0.9267   -1.5899 H       1  LIG1          0.13
     69 H          -5.2668   -4.5506    0.7343 H       1  LIG1       0.10999999999999999
     70 H          -3.6205   -5.1435    0.8887 H       1  LIG1          0.14
     71 H          -0.3775    5.2053    3.6911 H       1  LIG1       0.10999999999999999
     72 H          -1.6643    4.5902    4.7058 H       1  LIG1          0.13
     73 H          -2.2077    0.5095   -6.4301 H       1  LIG1          0.12
     74 H          -0.5524    0.2621   -6.9727 H       1  LIG1          0.14
     75 H           6.5217    1.0916   -1.1147 H       1  LIG1       0.10999999999999999
     76 H           6.7317    0.5059    0.5230 H       1  LIG1          0.14
     77 H          -3.4171   -3.2551   -2.5104 H       1  LIG1          0.14
     78 H          -3.9894   -4.2433   -1.1744 H       1  LIG1          0.12
     79 H          -2.8417    0.4469    5.2318 H       1  LIG1          0.14
     80 H          -1.8861    1.6747    6.0087 H       1  LIG1          0.14
     81 H           2.8461   -0.6970   -5.1641 H       1  LIG1          0.14
     82 H           1.4934   -0.8829   -6.2699 H       1  LIG1          0.12
     83 H           3.8845    0.3382    3.2501 H       1  LIG1          0.14
     84 H           5.1619   -0.3432    2.2567 H       1  LIG1          0.13
     85 H          -3.2418   -0.5058    3.1516 H       1  LIG1       0.17000000000000004
     86 H          -1.8438   -1.5406    3.2073 H       1  LIG1       0.17000000000000004
     87 H          -2.9972   -1.0848   -3.1037 H       1  LIG1       0.17000000000000004
     88 H          -2.7221    0.4654   -2.3868 H       1  LIG1       0.16000000000000003
     89 H           2.5124    2.4640    2.9699 H       1  LIG1       0.18000000000000005
     90 H           1.6367    3.3066    1.7418 H       1  LIG1       0.16000000000000003
     91 H           3.4083   -0.2107   -2.8369 H       1  LIG1       0.17000000000000004
     92 H           2.8674    1.4327   -2.9709 H       1  LIG1       0.17000000000000004
     93 H          -1.7750    0.4414    0.1353 H       1  LIG1          0.36
     94 H           0.1281    0.1724    1.4731 H       1  LIG1          0.36
     95 H           0.1545   -0.1505   -1.2007 H       1  LIG1          0.36
     96 H           1.2274    1.8726   -0.5327 H       1  LIG1           0.36
@<TRIPOS>BOND
     1    50    35   ar
     2    49    35   ar
     3    35     7    1
     4    58    39   ar
     5    74     7    1
     6     7    73    1
     7     7     3    1
     8    82    11    1
     9    39    11    1
    10    39    57   ar
    11    65     3    1
    12     3    66    1
    13     3    19    1
    14    11    81    1
    15    11    23    1
    16    19    23   ar
    17    19    26   ar
    18    23    31   ar
    19    87    14    1
    20    26    14    1
    21    26    43   ar
    22    31    16    2
    23    31    43   ar
    24    92    16    1
    25    91    16    1
    26    77     9    1
    27    16    28    1
    28    14    88    1
    29    14    29    2
    30    53    37   ar
    31    43    95    1
    32    37    54   ar
    33    37     9    1
    34    68     4    1
    35     9    78    1
    36     9    21    1
    37    52    36   ar
    38    75     8    1
    39    29    21   ar
    40    29    41   ar
    41    28    44   ar
    42    28    20   ar
    43    36    51   ar
    44    36     8    1
    45    21    17   ar
    46     4     8    1
    47     4    20    1
    48     4    67    1
    49    96    44    1
    50     8    76    1
    51    44    32   ar
    52    20    24   ar
    53    41    93    1
    54    41    25   ar
    55    69     5    1
    56    17    25   ar
    57    17     1    1
    58    70     5    1
    59    32    24   ar
    60    32    15    1
    61    24    12    1
    62    25    13    2
    63     5     1    1
    64     5    33    1
    65    94    42    1
    66    90    15    1
    67     1    62    1
    68     1    61    1
    69    15    27    2
    70    15    89    1
    71    42    27   ar
    72    42    30   ar
    73    84    12    1
    74    12    40    1
    75    12    83    1
    76    45    33   ar
    77    33    46   ar
    78    13    30    1
    79    13    85    1
    80    13    86    1
    81    27    18   ar
    82    60    40   ar
    83    30    22   ar
    84    40    59   ar
    85    71     6    1
    86    18    22   ar
    87    18     2    1
    88    22    10    1
    89    56    38   ar
    90     6    72    1
    91     6     2    1
    92     6    34    1
    93    64     2    1
    94     2    63    1
    95    10    38    1
    96    10    79    1
    97    10    80    1
    98    38    55   ar
    99    48    34   ar
   100    34    47   ar
