@<TRIPOS>MOLECULE
QURLIMHPCRKMJP-WDXILIIOSA-N	6045149	-2173.5209706451255
 126 126 0 0 0
SMALL
MULLIKEN NwChem

@<TRIPOS>ATOM
      1 C           7.2471   -0.8633    0.4238 C.3     1  LIG1            -0.54
      2 C           7.4363   -3.1564   -0.6571 C.3     1  LIG1      -0.5300000000000002
      3 C           4.2961   -3.8282    4.3479 C.3     1  LIG1        -0.54
      4 C           3.0210   -4.8958   -1.3833 C.3     1  LIG1        -0.54
      5 C           4.8671    0.1789   -2.5062 C.3     1  LIG1      -0.5499999999999998
      6 C           2.7920    0.5254    2.6650 C.3     1  LIG1      -0.5499999999999998
      7 C          -1.7201   -3.1652    1.2774 C.3     1  LIG1      -0.5300000000000002
      8 C          -0.6100   -1.1662   -4.8148 C.3     1  LIG1        -0.54
      9 C          -0.5951    3.7427   -1.2641 C.3     1  LIG1      -0.5499999999999998
     10 C          -4.8384    0.3942    0.7845 C.3     1  LIG1      -0.5999999999999996
     11 C          -7.4313    6.2818    0.1172 C.3     1  LIG1       -0.23000000000000043
     12 C           6.8904   -2.2816    3.1254 C.3     1  LIG1      -0.3200000000000003
     13 C           2.7321   -4.2439    1.7007 C.3     1  LIG1      -0.3200000000000003
     14 C           2.7138   -2.1961   -2.8289 C.3     1  LIG1      -0.3200000000000003
     15 C           3.4583    1.7833   -0.2790 C.3     1  LIG1      -0.3099999999999996
     16 C          -0.0745   -0.3041    2.3154 C.3     1  LIG1      -0.2999999999999998
     17 C          -1.3114   -2.4344   -1.7420 C.3     1  LIG1      -0.3200000000000003
     18 C          -1.0420    1.7738   -3.8323 C.3     1  LIG1      -0.3200000000000003
     19 C           7.1650   -2.9619    1.8058 C.2     1  LIG1      -0.1900000000000004
     20 C           5.4114   -1.8179    3.2407 C.3     1  LIG1      -0.33000000000000007
     21 C           3.7281   -3.1481    1.9892 C.2     1  LIG1      -0.16999999999999993
     22 C           1.7333   -3.8685    0.5828 C.3     1  LIG1      -0.3600000000000003
     23 C           2.2460   -2.5077   -1.4252 C.2     1  LIG1      -0.1900000000000004
     24 C           2.5550   -0.6987   -3.1774 C.3     1  LIG1      -0.3600000000000003
     25 C           2.7828    0.9106   -1.3119 C.2     1  LIG1      -0.1900000000000004
     26 C           2.4677    2.2714    0.8007 C.3     1  LIG1      -0.3600000000000003
     27 C           0.6142    0.7431    1.4707 C.2     1  LIG1      -0.20999999999999996
     28 C          -1.4759   -0.6875    1.7884 C.3     1  LIG1      -0.3700000000000001
     29 C          -1.2837   -1.4906   -0.5679 C.2     1  LIG1      -0.17999999999999972
     30 C          -2.1674   -1.8851   -2.9193 C.3     1  LIG1      -0.33999999999999986
     31 C          -1.6817    0.5226   -3.2794 C.2     1  LIG1      -0.17999999999999972
     32 C          -1.8032    3.0624   -3.4181 C.3     1  LIG1      -0.33999999999999986
     33 C          -2.9684    2.8985   -1.2352 C.2     1  LIG1      -0.1900000000000004
     34 C          -3.1665    2.8730    0.2696 C.3     1  LIG1      -0.45999999999999996
     35 C           7.2895   -2.3602    0.6150 C.2     1  LIG1      0.17999999999999972
     36 C           4.4096   -2.9471    3.1281 C.2     1  LIG1      0.16999999999999993
     37 C           2.3466   -3.6826   -0.7877 C.2     1  LIG1      0.17999999999999972
     38 C           3.3764    0.1973   -2.2791 C.2     1  LIG1      0.17999999999999972
     39 C           1.8827    1.1491    1.6288 C.2     1  LIG1      0.17999999999999972
     40 C          -1.4834   -1.7785    0.7285 C.2     1  LIG1      0.16000000000000014
     41 C          -1.4960   -0.7481   -3.6676 C.2     1  LIG1      0.16999999999999993
     42 C          -1.8638    3.2479   -1.9149 C.2     1  LIG1      0.17999999999999972
     43 C          -5.3932    1.7944    0.9576 C.ar    1  LIG1       0.08000000000000007
     44 C          -4.6274    2.9441    0.6684 C.ar    1  LIG1       0.04999999999999982
     45 C          -6.7116    1.9369    1.4165 C.ar    1  LIG1       0.20999999999999996
     46 C          -5.2286    4.2085    0.7303 C.ar    1  LIG1       0.23000000000000043
     47 C          -7.2886    3.2089    1.5312 C.ar    1  LIG1       0.2599999999999998
     48 C          -6.5492    4.3408    1.1699 C.ar    1  LIG1       0.2599999999999998
     49 O          -7.5184    0.8725    1.7416 O.3     1  LIG1      -0.6899999999999995
     50 O          -4.5438    5.3625    0.4013 O.3     1  LIG1      -0.6899999999999995
     51 O          -8.5660    3.3398    1.9811 O.3     1  LIG1      -0.6899999999999995
     52 O          -7.1899    5.5576    1.3304 O.3     1  LIG1      -0.5700000000000003
     53 H           8.0474   -0.5322   -0.2525 H       1  LIG1       0.15000000000000002
     54 H           7.3482   -0.3086    1.3610 H       1  LIG1       0.16000000000000003
     55 H           6.2977   -0.5616   -0.0414 H       1  LIG1       0.18000000000000005
     56 H           7.4378   -4.2343   -0.4663 H       1  LIG1       0.16000000000000003
     57 H           6.6104   -2.9374   -1.3487 H       1  LIG1       0.17000000000000004
     58 H           8.3639   -2.9008   -1.1878 H       1  LIG1       0.16000000000000003
     59 H           3.5522   -4.6207    4.2356 H       1  LIG1       0.16000000000000003
     60 H           5.2564   -4.3130    4.5708 H       1  LIG1       0.17000000000000004
     61 H           4.0342   -3.2349    5.2350 H       1  LIG1       0.16000000000000003
     62 H           3.3209   -4.7441   -2.4236 H       1  LIG1       0.16000000000000003
     63 H           3.9185   -5.1683   -0.8141 H       1  LIG1       0.17000000000000004
     64 H           2.3539   -5.7700   -1.3474 H       1  LIG1       0.16000000000000003
     65 H           5.1041    0.4613   -3.5404 H       1  LIG1       0.16000000000000003
     66 H           5.4053    0.8597   -1.8432 H       1  LIG1       0.17000000000000004
     67 H           5.2816   -0.8267   -2.3565 H       1  LIG1       0.18000000000000005
     68 H           2.5138    0.8486    3.6780 H       1  LIG1       0.16000000000000003
     69 H           2.7454   -0.5692    2.6538 H       1  LIG1       0.17000000000000004
     70 H           3.8371    0.8128    2.5107 H       1  LIG1       0.16000000000000003
     71 H          -2.7234   -3.2389    1.7192 H       1  LIG1       0.16000000000000003
     72 H          -1.6144   -3.9558    0.5311 H       1  LIG1       0.16000000000000003
     73 H          -1.0071   -3.3818    2.0843 H       1  LIG1       0.17000000000000004
     74 H          -1.2125   -1.6159   -5.6164 H       1  LIG1       0.16000000000000003
     75 H          -0.0379   -0.3391   -5.2418 H       1  LIG1       0.16000000000000003
     76 H           0.1043   -1.9364   -4.4965 H       1  LIG1       0.17000000000000004
     77 H          -0.4013    4.7892   -1.5358 H       1  LIG1       0.16000000000000003
     78 H          -0.6181    3.6732   -0.1727 H       1  LIG1       0.17000000000000004
     79 H           0.2709    3.1664   -1.6122 H       1  LIG1       0.18000000000000005
     80 H          -4.4630   -0.0335    1.7247 H       1  LIG1       0.18999999999999995
     81 H          -5.6066   -0.2852    0.3951 H       1  LIG1       0.17000000000000004
     82 H          -4.0134    0.3565    0.0707 H       1  LIG1       0.18999999999999995
     83 H          -6.4902    6.5973   -0.3405 H       1  LIG1       0.17000000000000004
     84 H          -8.0017    5.6715   -0.5950 H       1  LIG1       0.16000000000000003
     85 H          -8.0184    7.1597    0.3987 H       1  LIG1       0.18000000000000005
     86 H           7.1291   -2.9643    3.9489 H       1  LIG1       0.15000000000000002
     87 H           7.5349   -1.4037    3.2642 H       1  LIG1       0.15000000000000002
     88 H           3.2571   -5.1685    1.4156 H       1  LIG1       0.15000000000000002
     89 H           2.1609   -4.4966    2.6017 H       1  LIG1       0.15000000000000002
     90 H           3.7593   -2.4987   -2.9745 H       1  LIG1       0.16000000000000003
     91 H           2.1358   -2.7860   -3.5561 H       1  LIG1       0.16000000000000003
     92 H           4.2810    1.2374    0.2044 H       1  LIG1       0.16000000000000003
     93 H           3.9217    2.6607   -0.7556 H       1  LIG1       0.15000000000000002
     94 H           0.5480   -1.2048    2.4073 H       1  LIG1       0.16000000000000003
     95 H          -0.1748    0.0823    3.3410 H       1  LIG1       0.15000000000000002
     96 H          -0.2877   -2.6196   -2.0984 H       1  LIG1       0.16000000000000003
     97 H          -1.7101   -3.4095   -1.4447 H       1  LIG1          0.14
     98 H           0.0011    1.8502   -3.4889 H       1  LIG1       0.16000000000000003
     99 H          -0.9940    1.7403   -4.9280 H       1  LIG1       0.15000000000000002
    100 H           7.1753   -4.0513    1.8251 H       1  LIG1          0.12
    101 H           5.2779   -1.2954    4.1997 H       1  LIG1          0.13
    102 H           5.2264   -1.0840    2.4504 H       1  LIG1       0.16000000000000003
    103 H           3.9156   -2.4681    1.1566 H       1  LIG1          0.12
    104 H           0.9778   -4.6678    0.5230 H       1  LIG1          0.14
    105 H           1.1962   -2.9555    0.8629 H       1  LIG1       0.16000000000000003
    106 H           1.7609   -1.6857   -0.8998 H       1  LIG1          0.12
    107 H           2.8350   -0.5509   -4.2307 H       1  LIG1          0.14
    108 H           1.4956   -0.4311   -3.0876 H       1  LIG1       0.16000000000000003
    109 H           1.6970    0.8428   -1.2290 H       1  LIG1          0.13
    110 H           2.9884    2.9773    1.4627 H       1  LIG1          0.14
    111 H           1.6643    2.8337    0.3119 H       1  LIG1       0.16000000000000003
    112 H          -0.0027    1.2475    0.7251 H       1  LIG1          0.14
    113 H          -2.0942   -1.0156    2.6335 H       1  LIG1          0.14
    114 H          -1.9555    0.2171    1.3996 H       1  LIG1       0.17000000000000004
    115 H          -1.0969   -0.4492   -0.8258 H       1  LIG1          0.13
    116 H          -2.3699   -2.7105   -3.6152 H       1  LIG1          0.14
    117 H          -3.1371   -1.5626   -2.5207 H       1  LIG1          0.14
    118 H          -2.3533    0.6847   -2.4389 H       1  LIG1          0.13
    119 H          -1.3062    3.9240   -3.8850 H       1  LIG1          0.14
    120 H          -2.8188    3.0137   -3.8297 H       1  LIG1       0.15000000000000002
    121 H          -3.8244    2.5384   -1.8071 H       1  LIG1          0.13
    122 H          -2.7142    1.9647    0.6820 H       1  LIG1       0.19999999999999996
    123 H          -2.6265    3.6974    0.7516 H       1  LIG1       0.17000000000000004
    124 H          -6.9645    0.0890    1.8692 H       1  LIG1       0.44999999999999996
    125 H          -3.9010    5.1462   -0.2930 H       1  LIG1       0.44999999999999996
    126 H          -8.7236    4.3015    2.0234 H       1  LIG1       0.43999999999999995
@<TRIPOS>BOND
     1    74     8    1
     2    75     8    1
     3    99    18    1
     4     8    76    1
     5     8    41    1
     6   107    24    1
     7   119    32    1
     8    18    98    1
     9    18    32    1
    10    18    31    1
    11   120    32    1
    12    41    31    2
    13    41    30    1
    14   116    30    1
    15    91    14    1
    16    65     5    1
    17    32    42    1
    18    31   118    1
    19    24   108    1
    20    24    14    1
    21    24    38    1
    22    90    14    1
    23    30   117    1
    24    30    17    1
    25    14    23    1
    26     5    67    1
    27     5    38    1
    28     5    66    1
    29    62     4    1
    30    38    25    2
    31    96    17    1
    32    42     9    1
    33    42    33    2
    34   121    33    1
    35    17    97    1
    36    17    29    1
    37    79     9    1
    38    77     9    1
    39    23   106    1
    40    23    37    2
    41     4    64    1
    42     4    63    1
    43     4    37    1
    44    57     2    1
    45    25   109    1
    46    25    15    1
    47     9    78    1
    48    33    34    1
    49    58     2    1
    50   115    29    1
    51    37    22    1
    52    93    15    1
    53     2    56    1
    54     2    35    1
    55    84    11    1
    56    29    40    2
    57    83    11    1
    58   125    50    1
    59    15    92    1
    60    15    26    1
    61    53     1    1
    62    55     1    1
    63    82    10    1
    64    11    85    1
    65    11    52    1
    66    34    44    1
    67    34   122    1
    68    34   123    1
    69   111    26    1
    70    81    10    1
    71    50    46    1
    72     1    35    1
    73     1    54    1
    74   104    22    1
    75    72     7    1
    76    22   105    1
    77    22    13    1
    78    35    19    2
    79    44    46   ar
    80    44    43   ar
    81   112    27    1
    82    40     7    1
    83    40    28    1
    84    46    48   ar
    85    10    43    1
    86    10    80    1
    87    26   110    1
    88    26    39    1
    89    43    45   ar
    90   103    21    1
    91    48    52    1
    92    48    47   ar
    93     7    71    1
    94     7    73    1
    95   114    28    1
    96    88    13    1
    97    45    47   ar
    98    45    49    1
    99    27    39    2
   100    27    16    1
   101    47    51    1
   102    39     6    1
   103    13    21    1
   104    13    89    1
   105    49   124    1
   106    28    16    1
   107    28   113    1
   108    19   100    1
   109    19    12    1
   110    51   126    1
   111    21    36    2
   112    16    94    1
   113    16    95    1
   114   102    20    1
   115    70     6    1
   116    69     6    1
   117     6    68    1
   118    12    20    1
   119    12    87    1
   120    12    86    1
   121    36    20    1
   122    36     3    1
   123    20   101    1
   124    59     3    1
   125     3    60    1
   126     3    61    1
