@<TRIPOS>MOLECULE
QUTYKIXIUDQOLK-PRJMDXOYSA-J	11085206	-1480.5319832450868
 30 30 0 0 0
SMALL
MULLIKEN NwChem

@<TRIPOS>ATOM
      1 C           3.6849    0.0613   -0.5233 C.2     1  LIG1      -0.4800000000000004
      2 C           0.7931    1.6942    0.1943 C.3     1  LIG1       -0.3600000000000003
      3 C          -1.5393    1.3430   -0.5644 C.2     1  LIG1      -0.21999999999999975
      4 C           3.2902   -0.1632    0.7490 C.2     1  LIG1       0.3099999999999996
      5 C          -0.4886    2.1746   -0.4592 C.2     1  LIG1       0.08000000000000007
      6 C           0.9054    0.1637    0.3000 C.3     1  LIG1       0.1200000000000001
      7 C          -1.6207   -0.0813   -0.0509 C.3     1  LIG1       0.07000000000000028
      8 C          -0.3915   -0.4514    0.8590 C.3     1  LIG1       0.16000000000000014
      9 C           4.3760   -0.4141    1.8621 C.2     1  LIG1       0.45999999999999996
     10 C          -0.5421    3.6474   -0.9468 C.2     1  LIG1       0.46999999999999975
     11 O          -0.2603   -1.8311    1.0619 O.3     1  LIG1      -0.7699999999999996
     12 O           5.5405   -0.6798    1.4361 O.co2   1  LIG1      -0.6799999999999997
     13 O           4.0061   -0.2990    3.0560 O.co2   1  LIG1      -0.6600000000000001
     14 O          -1.6236    4.0628   -1.4569 O.co2   1  LIG1      -0.6799999999999997
     15 O           0.5158    4.3278   -0.7732 O.co2   1  LIG1      -0.6799999999999997
     16 O          -4.3076   -1.4614   -0.5294 O.3     1  LIG1      -0.7899999999999991
     17 O          -2.4246   -3.0828    0.2076 O.3     1  LIG1      -0.8000000000000007
     18 O          -3.0466   -2.8873   -2.3196 O.2     1  LIG1      -0.7599999999999998
     19 O           2.0106   -0.1656    1.1989 O.2     1  LIG1      -0.5500000000000007
     20 O          -1.7978   -0.9707   -1.1391 O.3     1  LIG1      -0.6600000000000001
     21 P          -3.0349   -2.2193   -0.9412 P.3     1  LIG1       0.9499999999999993
     22 H           3.0009    0.2975   -1.3316 H       1  LIG1       0.15000000000000002
     23 H           4.7464   -0.0069   -0.7300 H       1  LIG1          0.13
     24 H           0.8682    2.0933    1.2194 H       1  LIG1       0.15000000000000002
     25 H           1.6533    2.1179   -0.3331 H       1  LIG1          0.14
     26 H          -2.4339    1.7073   -1.0669 H       1  LIG1          0.12
     27 H           1.0816   -0.2993   -0.6789 H       1  LIG1          0.13
     28 H          -2.5162   -0.1450    0.5908 H       1  LIG1          0.12
     29 H          -0.5637    0.0679    1.8314 H       1  LIG1       0.08999999999999997
     30 H          -1.0826   -2.3071    0.6869 H       1  LIG1       0.43999999999999995
@<TRIPOS>BOND
     1    18    21    2
     2    14    10   ar
     3    22     1    1
     4    20    21    1
     5    20     7    1
     6    26     3    1
     7    10    15   ar
     8    10     5    1
     9    21    16    1
    10    21    17    1
    11    23     1    1
    12    27     6    1
    13     3     5    2
    14     3     7    1
    15     1     4    2
    16     5     2    1
    17    25     2    1
    18     7    28    1
    19     7     8    1
    20     2     6    1
    21     2    24    1
    22     6     8    1
    23     6    19    1
    24    30    11    1
    25     4    19    1
    26     4     9    1
    27     8    11    1
    28     8    29    1
    29    12     9   ar
    30     9    13   ar
