@<TRIPOS>MOLECULE
QWEGOCJRZOKSOE-ADUAKINBSA-M	6045151	-2714.1427267793188
 59 62 0 0 0
SMALL
MULLIKEN NwChem

@<TRIPOS>ATOM
      1 C           2.4456    3.1160   -3.7709 C.3     1  LIG1      -0.2599999999999998
      2 C           1.7565    1.7861   -4.1186 C.3     1  LIG1      -0.28000000000000025
      3 C           2.0006    3.7068   -2.4313 C.3     1  LIG1      -0.2699999999999996
      4 C           2.0268    0.6471   -3.1138 C.3     1  LIG1       -0.34999999999999964
      5 C           2.3656    5.4951   -0.6389 C.3     1  LIG1      -0.2699999999999996
      6 C           0.8864    5.8613   -0.4770 C.3     1  LIG1       -0.41999999999999993
      7 C           0.2501   -0.8174    1.5259 C.3     1  LIG1       -0.08000000000000007
      8 C          -3.5891   -3.1647    3.9855 C.ar    1  LIG1       0.15000000000000036
      9 C          -1.7824   -6.0203    1.2513 C.ar    1  LIG1       0.23000000000000043
     10 C           2.6484    5.0481   -2.0817 C.3     1  LIG1       -0.28000000000000025
     11 C          -0.3635   -1.6563    0.4169 C.3     1  LIG1       0.09999999999999964
     12 C           1.2099    0.7912   -1.8343 C.2     1  LIG1       0.6500000000000004
     13 C          -2.8278   -5.5277    3.0252 C.ar    1  LIG1       0.1900000000000004
     14 C          -1.8576   -1.3803    0.1765 C.3     1  LIG1       0.09999999999999964
     15 C          -2.3422   -2.7335   -0.4012 C.3     1  LIG1       0.08000000000000007
     16 C          -3.5006   -5.4510    4.2595 C.ar    1  LIG1       0.46999999999999975
     17 C          -2.5980   -4.3098    2.3708 C.ar    1  LIG1          0.54
     18 C          -1.3557   -3.7565    0.2072 C.3     1  LIG1       0.2599999999999998
     19 N          -3.8159   -6.5697    4.9797 N.pl3   1  LIG1      -0.7800000000000002
     20 N          -3.8705   -4.2494    4.7316 N.ar    1  LIG1      -0.5499999999999998
     21 N          -2.9661   -3.0977    2.8070 N.ar    1  LIG1      -0.5300000000000002
     22 N          -2.3080   -6.5932    2.3083 N.ar    1  LIG1      -0.5700000000000003
     23 N          -1.9304   -4.6481    1.2098 N.ar    1  LIG1      -0.5099999999999998
     24 O          -0.0065    0.9213   -1.8808 O.2     1  LIG1      -0.5399999999999991
     25 O          -2.1405   -0.3647   -0.7629 O.3     1  LIG1      -0.7100000000000009
     26 O          -2.1715   -2.7307   -1.8049 O.3     1  LIG1      -0.6899999999999995
     27 O           2.6308    0.9493    1.7006 O.3     1  LIG1      -0.6600000000000001
     28 O           1.1154    2.8254    0.5706 O.2     1  LIG1      -0.6400000000000006
     29 O           0.1345    0.5529    1.1413 O.3     1  LIG1      -0.5700000000000003
     30 O          -0.2923   -3.0403    0.8009 O.3     1  LIG1      -0.5299999999999994
     31 O           1.9513    0.7286   -0.7358 O.3     1  LIG1      -0.5800000000000001
     32 P           1.5115    1.4106    0.8331 P.3     1  LIG1       1.1500000000000004
     33 S           0.2839    6.7398   -2.0150 S.3     1  LIG1      -0.07000000000000028
     34 S           2.0752    6.4628   -3.1486 S.3     1  LIG1      -0.05000000000000071
     35 H           2.2430    3.8403   -4.5715 H       1  LIG1       0.15000000000000002
     36 H           3.5364    2.9612   -3.7561 H       1  LIG1          0.14
     37 H           0.6715    1.9337   -4.1836 H       1  LIG1       0.15000000000000002
     38 H           2.0953    1.4609   -5.1114 H       1  LIG1       0.15000000000000002
     39 H           0.9097    3.8064   -2.4122 H       1  LIG1       0.15000000000000002
     40 H           2.2488    3.0302   -1.6104 H       1  LIG1       0.18000000000000005
     41 H           1.7269   -0.3071   -3.5669 H       1  LIG1       0.18999999999999995
     42 H           3.0911    0.5829   -2.8669 H       1  LIG1       0.17000000000000004
     43 H           2.9979    6.3567   -0.3989 H       1  LIG1       0.17000000000000004
     44 H           2.5780    4.6750    0.0555 H       1  LIG1       0.18999999999999995
     45 H           0.2923    4.9560   -0.3420 H       1  LIG1       0.20999999999999996
     46 H           0.7351    6.5271    0.3773 H       1  LIG1       0.19999999999999996
     47 H           1.2923   -1.0945    1.7076 H       1  LIG1       0.18000000000000005
     48 H          -0.3204   -0.9724    2.4499 H       1  LIG1       0.17000000000000004
     49 H          -3.9101   -2.2144    4.4067 H       1  LIG1       0.17000000000000004
     50 H          -1.2683   -6.5394    0.4519 H       1  LIG1       0.21999999999999997
     51 H           3.7330    4.9990   -2.2509 H       1  LIG1       0.19999999999999996
     52 H           0.1875   -1.5020   -0.5206 H       1  LIG1       0.16000000000000003
     53 H          -2.3539   -1.1894    1.1336 H       1  LIG1       0.16000000000000003
     54 H          -3.3798   -2.9658   -0.1250 H       1  LIG1       0.16000000000000003
     55 H          -0.9911   -4.4054   -0.5991 H       1  LIG1       0.18999999999999995
     56 H          -3.3064   -7.4134    4.7564 H       1  LIG1          0.38
     57 H          -4.0553   -6.4195    5.9500 H       1  LIG1          0.37
     58 H          -1.3699    0.2410   -0.8502 H       1  LIG1       0.45999999999999996
     59 H          -2.1798   -1.7713   -2.0223 H       1  LIG1       0.43000000000000005
@<TRIPOS>BOND
     1    38     2    1
     2    35     1    1
     3    37     2    1
     4     2     1    1
     5     2     4    1
     6     1    36    1
     7     1     3    1
     8    41     4    1
     9    34    10    1
    10    34    33    1
    11     4    42    1
    12     4    12    1
    13     3    39    1
    14     3    10    1
    15     3    40    1
    16    51    10    1
    17    10     5    1
    18    59    26    1
    19    33     6    1
    20    24    12    2
    21    12    31    1
    22    26    15    1
    23    58    25    1
    24    25    14    1
    25    31    32    1
    26     5     6    1
    27     5    43    1
    28     5    44    1
    29    55    18    1
    30    52    11    1
    31     6    45    1
    32     6    46    1
    33    15    54    1
    34    15    14    1
    35    15    18    1
    36    14    11    1
    37    14    53    1
    38    18    30    1
    39    18    23    1
    40    11    30    1
    41    11     7    1
    42    50     9    1
    43    28    32    2
    44    32    29    1
    45    32    27    1
    46    29     7    1
    47    23     9   ar
    48    23    17   ar
    49     9    22   ar
    50     7    47    1
    51     7    48    1
    52    22    13   ar
    53    17    21   ar
    54    17    13   ar
    55    21     8   ar
    56    13    16   ar
    57     8    49    1
    58     8    20   ar
    59    16    20   ar
    60    16    19    1
    61    56    19    1
    62    19    57    1
