@<TRIPOS>MOLECULE
QWYFHHGCZUCMBN-SECBINFHSA-N	6045153	-787.1886206519806
 37 37 0 0 0
SMALL
MULLIKEN NwChem

@<TRIPOS>ATOM
      1 C           2.1696    2.1990   -2.7134 C.3     1  LIG1      -0.4500000000000002
      2 C          -1.5940   -1.9583    1.5128 C.3     1  LIG1      -0.3700000000000001
      3 C          -3.8674   -1.0444    1.3890 C.3     1  LIG1      -0.33000000000000007
      4 C          -2.5055   -1.2279   -0.6465 C.3     1  LIG1      -0.34999999999999964
      5 C           0.9970    1.3001   -3.1206 C.3     1  LIG1        -0.25
      6 C           0.9688   -0.0938   -2.4748 C.3     1  LIG1       -0.33000000000000007
      7 C           0.5604    0.5325    1.6241 C.3     1  LIG1       -0.41000000000000014
      8 C          -2.0082    0.5047    1.1208 C.3     1  LIG1      -0.16999999999999993
      9 C          -0.5982    0.9816    0.7053 C.3     1  LIG1       0.15000000000000036
     10 C           1.9134    0.7656    0.9529 C.2     1  LIG1       0.6100000000000003
     11 C           0.7094   -0.2155   -0.9662 C.3     1  LIG1       0.7400000000000002
     12 N          -2.4741   -0.9304    0.8408 N.4     1  LIG1       -0.3600000000000003
     13 O           2.8625    1.2257    1.5565 O.2     1  LIG1      -0.5600000000000005
     14 O           1.9757    0.4167   -0.3259 O.3     1  LIG1      -0.5099999999999998
     15 O           0.4595   -1.3815   -0.5131 O.3     1  LIG1      -0.6899999999999995
     16 O          -0.3569    0.8021   -0.6629 O.3     1  LIG1      -0.5600000000000005
     17 H           2.1229    2.4610   -1.6548 H       1  LIG1       0.15000000000000002
     18 H           2.1698    3.1245   -3.3031 H       1  LIG1          0.14
     19 H           3.1294    1.6939   -2.8765 H       1  LIG1          0.14
     20 H          -1.5143   -1.7050    2.5721 H       1  LIG1       0.19999999999999996
     21 H          -2.0714   -2.9339    1.3957 H       1  LIG1       0.20999999999999996
     22 H          -0.6279   -1.9322    0.9927 H       1  LIG1          0.25
     23 H          -4.5103   -0.3160    0.8915 H       1  LIG1       0.21999999999999997
     24 H          -4.2390   -2.0532    1.2005 H       1  LIG1       0.21999999999999997
     25 H          -3.8472   -0.8550    2.4636 H       1  LIG1       0.20999999999999996
     26 H          -2.9834   -0.3924   -1.1582 H       1  LIG1       0.19999999999999996
     27 H          -1.4682   -1.3625   -0.9707 H       1  LIG1          0.24
     28 H          -3.0860   -2.1438   -0.7816 H       1  LIG1       0.18999999999999995
     29 H           0.0505    1.8091   -2.9012 H       1  LIG1          0.14
     30 H           1.0253    1.1545   -4.2104 H       1  LIG1          0.13
     31 H           0.1805   -0.6934   -2.9479 H       1  LIG1          0.14
     32 H           1.9124   -0.6228   -2.6540 H       1  LIG1          0.14
     33 H           0.5435    1.0957    2.5610 H       1  LIG1       0.18000000000000005
     34 H           0.5214   -0.5303    1.8561 H       1  LIG1       0.19999999999999996
     35 H          -2.1345    0.6512    2.1990 H       1  LIG1       0.20999999999999996
     36 H          -2.7415    1.1245    0.5976 H       1  LIG1       0.20999999999999996
     37 H          -0.6948    2.0697    0.8628 H       1  LIG1       0.16000000000000003
@<TRIPOS>BOND
     1    30     5    1
     2    18     1    1
     3     5    29    1
     4     5     1    1
     5     5     6    1
     6    31     6    1
     7    19     1    1
     8     1    17    1
     9    32     6    1
    10     6    11    1
    11    26     4    1
    12    27     4    1
    13    11    16    1
    14    11    15    1
    15    11    14    1
    16    28     4    1
    17    16     9    1
    18     4    12    1
    19    14    10    1
    20    36     8    1
    21     9    37    1
    22     9     8    1
    23     9     7    1
    24    12     8    1
    25    12     3    1
    26    12     2    1
    27    23     3    1
    28    10    13    2
    29    10     7    1
    30    22     2    1
    31     8    35    1
    32    24     3    1
    33     3    25    1
    34    21     2    1
    35     2    20    1
    36     7    34    1
    37     7    33    1
