@<TRIPOS>MOLECULE
QYHFIVBSNOWOCQ-UHFFFAOYSA-L	6045154	-2702.2893345499224
 5 2 0 0 0
SMALL
MULLIKEN NwChem

@<TRIPOS>ATOM
      1 O          -1.6677   -0.0028   -0.0117 O.3     1  LIG1       -0.7400000000000002
      2 O           0.5935   -0.7932   -1.3426 O.3     1  LIG1       -0.7400000000000002
      3 O           0.5608    1.5926    0.0058 O.3     2  HOH2       -0.7400000000000002
      4 O           0.5535   -0.7680    1.3974 O.3     1  LIG1       -0.7400000000000002
      5 SE          0.0100    0.0073    0.0122 Se      1  LIG1       0.9600000000000009
@<TRIPOS>BOND
     1     1     5    1
     2     5     4    1
