@<TRIPOS>MOLECULE
QYIMSPSDBYKPPY-RSKUXYSASA-N	6045155	-1247.845116470649
 81 81 0 0 0
SMALL
MULLIKEN NwChem

@<TRIPOS>ATOM
      1 C           0.1182    0.1028    4.8581 C.3     1  LIG1      -0.5300000000000002
      2 C          -2.2138    0.1749    3.8772 C.3     1  LIG1      -0.5300000000000002
      3 C          -3.8096    1.6992    0.2245 C.3     1  LIG1        -0.54
      4 C           0.7564   -3.7203    1.2711 C.3     1  LIG1        -0.54
      5 C           0.1152    4.6294    0.6803 C.3     1  LIG1      -0.5300000000000002
      6 C           3.9747    1.1170   -0.3817 C.3     1  LIG1      -0.5300000000000002
      7 C          -1.5681   -2.0345   -4.0960 C.3     1  LIG1         -0.5
      8 C           0.6036   -3.3691   -4.0940 C.3     1  LIG1      -0.4900000000000002
      9 C          -3.0382   -1.3522    0.3534 C.3     1  LIG1      -0.33000000000000007
     10 C          -1.8973   -2.3414    0.6630 C.3     1  LIG1      -0.3099999999999996
     11 C           0.8355    2.4386    2.8659 C.3     1  LIG1      -0.33000000000000007
     12 C          -1.4207    2.9431   -1.4045 C.3     1  LIG1      -0.3099999999999996
     13 C           2.8926   -1.4287    1.0781 C.3     1  LIG1      -0.3200000000000003
     14 C          -0.4949    1.7582    3.0436 C.2     1  LIG1      -0.17999999999999972
     15 C          -2.6184   -0.3379   -0.6797 C.2     1  LIG1      -0.21999999999999975
     16 C          -0.6729   -1.6621    1.2345 C.2     1  LIG1      -0.1900000000000004
     17 C           1.3011    2.4730    1.3842 C.3     1  LIG1      -0.34999999999999964
     18 C          -2.3620    1.8109   -1.8803 C.3     1  LIG1      -0.3700000000000001
     19 C           1.6708   -1.4525    2.0338 C.3     1  LIG1      -0.34999999999999964
     20 C          -0.3372    2.4397   -0.4800 C.2     1  LIG1      -0.1900000000000004
     21 C           2.5538   -0.9741   -0.3172 C.2     1  LIG1      -0.20000000000000018
     22 C           2.6442    0.4285   -2.4059 C.3     1  LIG1      -0.33999999999999986
     23 C           2.0672   -0.7012   -3.2823 C.3     1  LIG1      -0.2999999999999998
     24 C          -0.8217    0.7600    3.8788 C.2     1  LIG1      0.17999999999999972
     25 C          -2.9295    0.9647   -0.7576 C.2     1  LIG1      0.17999999999999972
     26 C           0.4981   -2.2524    1.5113 C.2     1  LIG1      0.16999999999999993
     27 C           0.3191    3.1491    0.4519 C.2     1  LIG1      0.16999999999999993
     28 C           3.0189    0.1033   -0.9682 C.2     1  LIG1      0.16000000000000014
     29 C           0.5721   -0.9145   -3.1795 C.3     1  LIG1       0.05999999999999961
     30 C          -0.1356   -2.1377   -3.6105 C.3     1  LIG1       0.3099999999999996
     31 O           0.0408   -1.8359   -2.2044 O.3     1  LIG1         -0.5
     32 H           0.1893   -0.9736    4.6491 H       1  LIG1       0.16000000000000003
     33 H          -0.2635    0.1993    5.8842 H       1  LIG1       0.16000000000000003
     34 H           1.1285    0.5186    4.8360 H       1  LIG1       0.16000000000000003
     35 H          -2.8756    0.6939    3.1771 H       1  LIG1       0.16000000000000003
     36 H          -2.1777   -0.8847    3.5876 H       1  LIG1       0.16000000000000003
     37 H          -2.6687    0.2158    4.8774 H       1  LIG1       0.15000000000000002
     38 H          -4.6281    2.2150   -0.2960 H       1  LIG1       0.16000000000000003
     39 H          -4.2549    1.0379    0.9719 H       1  LIG1       0.16000000000000003
     40 H          -3.2385    2.4710    0.7593 H       1  LIG1       0.17000000000000004
     41 H           1.3969   -3.8667    0.3903 H       1  LIG1       0.17000000000000004
     42 H           1.2815   -4.1725    2.1227 H       1  LIG1       0.16000000000000003
     43 H          -0.1627   -4.2858    1.0996 H       1  LIG1       0.16000000000000003
     44 H          -0.5277    5.0938   -0.0713 H       1  LIG1       0.16000000000000003
     45 H          -0.3264    4.8275    1.6660 H       1  LIG1       0.17000000000000004
     46 H           1.0808    5.1533    0.6640 H       1  LIG1       0.16000000000000003
     47 H           4.9523    1.0693   -0.8831 H       1  LIG1       0.16000000000000003
     48 H           3.5927    2.1354   -0.5339 H       1  LIG1       0.16000000000000003
     49 H           4.1406    0.9871    0.6899 H       1  LIG1       0.16000000000000003
     50 H          -1.6044   -2.0423   -5.1911 H       1  LIG1       0.16000000000000003
     51 H          -2.1536   -2.8877   -3.7321 H       1  LIG1       0.16000000000000003
     52 H          -2.0458   -1.1184   -3.7389 H       1  LIG1       0.17000000000000004
     53 H           1.5981   -3.4476   -3.6519 H       1  LIG1       0.17000000000000004
     54 H           0.0395   -4.2670   -3.8175 H       1  LIG1       0.16000000000000003
     55 H           0.7045   -3.3567   -5.1860 H       1  LIG1       0.17000000000000004
     56 H          -3.3649   -0.8695    1.2817 H       1  LIG1       0.15000000000000002
     57 H          -3.9024   -1.9243   -0.0177 H       1  LIG1          0.14
     58 H          -2.2723   -3.1124    1.3535 H       1  LIG1       0.15000000000000002
     59 H          -1.6244   -2.8634   -0.2649 H       1  LIG1       0.15000000000000002
     60 H           0.7736    3.4712    3.2400 H       1  LIG1       0.15000000000000002
     61 H           1.6165    1.9513    3.4594 H       1  LIG1       0.15000000000000002
     62 H          -2.0151    3.7205   -0.9097 H       1  LIG1       0.15000000000000002
     63 H          -0.9870    3.4219   -2.2959 H       1  LIG1       0.15000000000000002
     64 H           3.6772   -0.8125    1.5304 H       1  LIG1       0.15000000000000002
     65 H           3.3067   -2.4461    1.0180 H       1  LIG1       0.15000000000000002
     66 H          -1.2758    2.1252    2.3775 H       1  LIG1          0.13
     67 H          -1.9484   -0.7417   -1.4362 H       1  LIG1       0.16000000000000003
     68 H          -0.7595   -0.5909    1.4102 H       1  LIG1          0.13
     69 H           2.2680    2.9959    1.3497 H       1  LIG1          0.14
     70 H           1.4803    1.4495    1.0402 H       1  LIG1       0.16000000000000003
     71 H          -3.1792    2.2663   -2.4598 H       1  LIG1          0.14
     72 H          -1.8119    1.1634   -2.5741 H       1  LIG1       0.16000000000000003
     73 H           1.3488   -0.4265    2.2350 H       1  LIG1       0.17000000000000004
     74 H           2.0066   -1.8743    2.9940 H       1  LIG1          0.14
     75 H          -0.1095    1.3764   -0.5599 H       1  LIG1          0.12
     76 H           1.8419   -1.6162   -0.8293 H       1  LIG1          0.14
     77 H           1.9535    1.2879   -2.4071 H       1  LIG1       0.15000000000000002
     78 H           3.5529    0.7974   -2.9015 H       1  LIG1       0.15000000000000002
     79 H           2.2646   -0.4477   -4.3337 H       1  LIG1       0.16000000000000003
     80 H           2.6010   -1.6328   -3.0762 H       1  LIG1       0.16000000000000003
     81 H           0.0009    0.0173   -3.2363 H       1  LIG1       0.16000000000000003
@<TRIPOS>BOND
     1    50     7    1
     2    55     8    1
     3    79    23    1
     4     7    52    1
     5     7    51    1
     6     7    30    1
     7     8    54    1
     8     8    53    1
     9     8    30    1
    10    30    29    1
    11    30    31    1
    12    23    29    1
    13    23    80    1
    14    23    22    1
    15    81    29    1
    16    29    31    1
    17    78    22    1
    18    72    18    1
    19    71    18    1
    20    77    22    1
    21    22    28    1
    22    63    12    1
    23    18    12    1
    24    18    25    1
    25    67    15    1
    26    12    62    1
    27    12    20    1
    28    28     6    1
    29    28    21    2
    30    47     6    1
    31    76    21    1
    32    25    15    2
    33    25     3    1
    34    15     9    1
    35    75    20    1
    36    48     6    1
    37    20    27    2
    38     6    49    1
    39    21    13    1
    40    38     3    1
    41    59    10    1
    42    44     5    1
    43    57     9    1
    44     3    40    1
    45     3    39    1
    46     9    10    1
    47     9    56    1
    48    41     4    1
    49    27     5    1
    50    27    17    1
    51    10    16    1
    52    10    58    1
    53    46     5    1
    54     5    45    1
    55    65    13    1
    56    70    17    1
    57    13    64    1
    58    13    19    1
    59    43     4    1
    60    16    68    1
    61    16    26    2
    62     4    26    1
    63     4    42    1
    64    69    17    1
    65    17    11    1
    66    26    19    1
    67    19    73    1
    68    19    74    1
    69    66    14    1
    70    11    14    1
    71    11    60    1
    72    11    61    1
    73    14    24    2
    74    35     2    1
    75    36     2    1
    76     2    24    1
    77     2    37    1
    78    24     1    1
    79    32     1    1
    80    34     1    1
    81     1    33    1
