@<TRIPOS>MOLECULE
QYNOXVDCTMAHLO-YDBFHISISA-L	11085204	-3042.702097328064
 74 76 0 0 0
SMALL
MULLIKEN NwChem

@<TRIPOS>ATOM
      1 C           0.7696    0.1425   -2.3184 C.3     1  LIG1       -0.11000000000000032
      2 C           0.4143   -1.3326   -2.0603 C.3     1  LIG1       0.11000000000000032
      3 C          -6.9880    1.5450    1.4746 C.3     1  LIG1       0.1299999999999999
      4 C          -7.1716    0.0373    1.2146 C.3     1  LIG1       0.08999999999999986
      5 C          -5.5951    1.8508    2.0075 C.3     1  LIG1       0.1200000000000001
      6 C          -6.0931   -0.5208    0.2793 C.3     1  LIG1       0.08999999999999986
      7 C          -4.5141    1.2927    1.0635 C.3     1  LIG1       0.08000000000000007
      8 C           3.9535   -0.6851    1.4609 C.3     1  LIG1       0.17999999999999972
      9 C           5.4643   -1.3680   -0.4689 C.3     1  LIG1       0.1299999999999999
     10 C           4.9360    0.5110    1.6433 C.3     1  LIG1       0.07000000000000028
     11 C           6.2171    0.0198   -0.5101 C.3     1  LIG1       0.09999999999999964
     12 C          -0.4046   -2.8882   -0.2492 C.3     1  LIG1       0.16000000000000014
     13 C           0.9682   -2.8347    0.4850 C.3     1  LIG1       0.1200000000000001
     14 C          -0.6258   -1.5388   -0.9295 C.3     1  LIG1       0.009999999999999787
     15 C           4.0332   -1.1377   -0.0131 C.3     1  LIG1       0.019999999999999574
     16 C           5.4511    1.0994    0.3146 C.3     1  LIG1       0.09999999999999964
     17 C          -4.7133   -0.2152    0.8835 C.3     1  LIG1       0.08999999999999986
     18 C           1.9141   -1.9958   -0.3906 C.3     1  LIG1       0.2999999999999998
     19 O          -0.4067    0.8893   -2.7444 O.3     1  LIG1      -0.6799999999999997
     20 O          -7.9723    1.9720    2.4101 O.3     1  LIG1      -0.6899999999999995
     21 O          -8.4721   -0.1876    0.6644 O.3     1  LIG1      -0.6799999999999997
     22 O          -5.4258    3.2514    2.1325 O.3     1  LIG1      -0.6899999999999995
     23 O          -6.3437    0.1078   -0.9691 O.3     1  LIG1      -0.7100000000000009
     24 O          -3.2741    1.6136    1.6645 O.3     1  LIG1      -0.6899999999999995
     25 O           2.6680   -0.3684    1.8595 O.3     1  LIG1      -0.7699999999999996
     26 O           5.4934   -2.0093   -1.7424 O.3     1  LIG1      -0.6999999999999993
     27 O           6.0900    0.0474    2.3922 O.3     1  LIG1      -0.6899999999999995
     28 O           6.4238    0.5086   -1.8205 O.3     1  LIG1      -0.6899999999999995
     29 O          -1.4438   -3.2135    0.6540 O.3     1  LIG1      -0.6999999999999993
     30 O           0.8528   -2.2367    1.7398 O.3     1  LIG1      -0.7400000000000002
     31 O           3.6536    3.3621    1.1291 O.3     1  LIG1      -0.7200000000000006
     32 O           2.7672    3.3128   -1.3782 O.2     1  LIG1      -0.6999999999999993
     33 O           2.0076    1.5349    0.2609 O.3     1  LIG1      -0.7799999999999994
     34 O          -2.2986    0.9416   -0.9773 O.3     1  LIG1      -0.7300000000000004
     35 O          -4.0864   -0.3972   -2.3652 O.2     1  LIG1      -0.6199999999999992
     36 O           1.5843   -2.0975   -1.8020 O.3     1  LIG1      -0.5299999999999994
     37 O           3.2431   -2.3447   -0.2110 O.3     1  LIG1      -0.5600000000000005
     38 O           4.4464    1.5839   -0.5629 O.3     1  LIG1      -0.6600000000000001
     39 O          -1.9620   -1.5443   -1.5574 O.3     1  LIG1      -0.5600000000000005
     40 O          -3.6407   -0.8619    0.1575 O.3     1  LIG1      -0.5800000000000001
     41 P           3.1662    2.6398   -0.0991 P.3     1  LIG1       1.1199999999999992
     42 P          -3.0594   -0.4277   -1.2798 P.3     1  LIG1       1.2400000000000002
     43 H           1.5385    0.2026   -3.0955 H       1  LIG1       0.17000000000000004
     44 H           1.1448    0.6614   -1.4281 H       1  LIG1       0.22999999999999998
     45 H          -0.0317   -1.7613   -2.9702 H       1  LIG1       0.18000000000000005
     46 H          -7.1068    2.0756    0.5179 H       1  LIG1          0.14
     47 H          -7.1498   -0.4850    2.1780 H       1  LIG1       0.17000000000000004
     48 H          -5.4782    1.3602    2.9904 H       1  LIG1          0.14
     49 H          -6.2053   -1.6136    0.1964 H       1  LIG1       0.16000000000000003
     50 H          -4.6221    1.7931    0.0920 H       1  LIG1       0.17000000000000004
     51 H           4.3707   -1.5214    2.0607 H       1  LIG1       0.08999999999999997
     52 H           5.9730   -2.0049    0.2757 H       1  LIG1          0.12
     53 H           4.4075    1.2886    2.2014 H       1  LIG1          0.14
     54 H           7.2075   -0.1244   -0.0654 H       1  LIG1       0.15000000000000002
     55 H          -0.3352   -3.6472   -1.0473 H       1  LIG1       0.15000000000000002
     56 H           1.3534   -3.8686    0.5521 H       1  LIG1          0.13
     57 H          -0.5930   -0.7495   -0.1737 H       1  LIG1       0.19999999999999996
     58 H           3.6012   -0.3728   -0.6553 H       1  LIG1       0.18000000000000005
     59 H           6.1484    1.9233    0.5488 H       1  LIG1          0.13
     60 H          -4.6530   -0.6879    1.8693 H       1  LIG1       0.18999999999999995
     61 H           1.7675   -0.9582   -0.0926 H       1  LIG1       0.16000000000000003
     62 H          -0.7656    0.4750   -3.5459 H       1  LIG1          0.47
     63 H          -8.7995    1.5847    2.0747 H       1  LIG1       0.42000000000000004
     64 H          -8.3580    0.0151   -0.2834 H       1  LIG1       0.43000000000000005
     65 H          -4.4636    3.3670    2.2371 H       1  LIG1       0.43000000000000005
     66 H          -5.6359   -0.1412   -1.6138 H       1  LIG1       0.45999999999999996
     67 H          -2.5839    1.5407    0.9800 H       1  LIG1       0.44999999999999996
     68 H           2.2622    0.8638    1.0060 H       1  LIG1       0.43999999999999995
     69 H           4.6515   -2.4978   -1.7689 H       1  LIG1       0.42000000000000004
     70 H           6.6573    0.8275    2.5052 H       1  LIG1       0.43000000000000005
     71 H           5.5981    1.0026   -2.0018 H       1  LIG1       0.42000000000000004
     72 H          -2.2747   -2.9309    0.2402 H       1  LIG1       0.43000000000000005
     73 H           1.6068   -1.5384    1.8518 H       1  LIG1       0.43999999999999995
     74 H          -1.5326    1.0858   -1.6353 H       1  LIG1            0.5
@<TRIPOS>BOND
     1    62    19    1
     2    43     1    1
     3    45     2    1
     4    19     1    1
     5    35    42    2
     6     1     2    1
     7     1    44    1
     8     2    36    1
     9     2    14    1
    10    71    28    1
    11    28    11    1
    12    36    18    1
    13    69    26    1
    14    26     9    1
    15    74    34    1
    16    66    23    1
    17    39    42    1
    18    39    14    1
    19    32    41    2
    20    42    34    1
    21    42    40    1
    22    55    12    1
    23    23     6    1
    24    14    12    1
    25    14    57    1
    26    58    15    1
    27    38    41    1
    28    38    16    1
    29    11     9    1
    30    11    54    1
    31    11    16    1
    32     9    15    1
    33     9    52    1
    34    18    37    1
    35    18    61    1
    36    18    13    1
    37    64    21    1
    38    12    13    1
    39    12    29    1
    40    37    15    1
    41    41    33    1
    42    41    31    1
    43    15     8    1
    44    50     7    1
    45    40    17    1
    46    49     6    1
    47    72    29    1
    48    33    68    1
    49     6    17    1
    50     6     4    1
    51    16    59    1
    52    16    10    1
    53    13    56    1
    54    13    30    1
    55    46     3    1
    56    21     4    1
    57    17     7    1
    58    17    60    1
    59    67    24    1
    60     7    24    1
    61     7     5    1
    62     4     3    1
    63     4    47    1
    64     8    10    1
    65     8    25    1
    66     8    51    1
    67     3     5    1
    68     3    20    1
    69    10    53    1
    70    10    27    1
    71    30    73    1
    72     5    22    1
    73     5    48    1
    74    63    20    1
    75    22    65    1
    76    27    70    1
