@<TRIPOS>MOLECULE
QYOJSKGCWNAKGW-PBXRRBTRSA-K	11085203	-1215.0660618017048
 24 24 0 0 0
SMALL
MULLIKEN NwChem

@<TRIPOS>ATOM
      1 C          -2.4574   -0.0681    0.7810 C.3     1  LIG1       -0.34999999999999964
      2 C          -0.2846   -1.2914    0.6935 C.2     1  LIG1      -0.23000000000000043
      3 C          -1.6172   -1.3316    0.8895 C.2     1  LIG1       0.08000000000000007
      4 C          -1.6833    1.0433    0.0825 C.3     1  LIG1       0.13999999999999968
      5 C           0.5517   -0.0459    0.4264 C.3     1  LIG1       0.08000000000000007
      6 C          -0.2879    1.2240    0.7383 C.3     1  LIG1       0.17999999999999972
      7 C          -2.3553   -2.6509    1.2494 C.2     1  LIG1       0.46999999999999975
      8 O          -2.3260    2.3244    0.1391 O.3     1  LIG1        -0.75
      9 O           0.2270    2.4555    0.4083 O.3     1  LIG1      -0.8000000000000007
     10 O          -3.6109   -2.5510    1.4066 O.co2   1  LIG1      -0.6799999999999997
     11 O          -1.6603   -3.6995    1.3714 O.co2   1  LIG1      -0.6799999999999997
     12 O           3.5093    0.2908   -0.1910 O.3     1  LIG1      -0.7300000000000004
     13 O           2.8471    0.1505   -2.7251 O.2     1  LIG1      -0.7200000000000006
     14 O           2.1282    2.1851   -1.3254 O.3     1  LIG1      -0.7899999999999991
     15 O           1.0347   -0.0922   -0.9298 O.3     1  LIG1      -0.6300000000000008
     16 P           2.5317    0.6013   -1.3134 P.3     1  LIG1       0.9900000000000002
     17 H          -2.7472    0.2844    1.7863 H       1  LIG1          0.13
     18 H          -3.4034   -0.3128    0.2797 H       1  LIG1          0.13
     19 H           0.2504   -2.2399    0.7406 H       1  LIG1       0.10999999999999999
     20 H          -1.5138    0.7576   -0.9719 H       1  LIG1       0.07999999999999996
     21 H           1.4318   -0.0578    1.0876 H       1  LIG1          0.12
     22 H          -0.4769    1.1516    1.8486 H       1  LIG1       0.050000000000000044
     23 H          -1.4723    2.8585    0.1754 H       1  LIG1          0.38
     24 H           1.3508    2.3232   -0.6517 H       1  LIG1       0.43000000000000005
@<TRIPOS>BOND
     1    13    16    2
     2    14    16    1
     3    14    24    1
     4    16    15    1
     5    16    12    1
     6    20     4    1
     7    15     5    1
     8     4     8    1
     9     4     6    1
    10     4     1    1
    11     8    23    1
    12    18     1    1
    13     9     6    1
    14     5     2    1
    15     5     6    1
    16     5    21    1
    17     2    19    1
    18     2     3    2
    19     6    22    1
    20     1     3    1
    21     1    17    1
    22     3     7    1
    23     7    11   ar
    24     7    10   ar
