@<TRIPOS>MOLECULE
QYPPJABKJHAVHS-UHFFFAOYSA-P	6045158	-418.7342135692807
 25 24 0 0 0
SMALL
MULLIKEN NwChem

@<TRIPOS>ATOM
      1 C           0.6905   -2.0054   -0.5545 C.3     1  LIG1      -0.28000000000000025
      2 C           0.2177   -1.3314    0.7526 C.3     1  LIG1      -0.2699999999999996
      3 C           0.2315   -1.3077   -1.8347 C.3     1  LIG1      -0.16999999999999993
      4 C           0.9459   -0.0395    1.1762 C.3     1  LIG1       -0.17999999999999972
      5 C          -0.6770    1.8588    1.0207 C.cat   1  LIG1          0.79
      6 N           0.6130   -2.1469   -3.0569 N.4     1  LIG1         -0.71
      7 N          -1.0149    3.0322    0.4746 N.pl3   1  LIG1      -0.7599999999999998
      8 N          -1.4579    1.3182    1.9618 N.pl3   1  LIG1      -0.7599999999999998
      9 N           0.4201    1.2068    0.5750 N.pl3   1  LIG1      -0.5899999999999999
     10 H           0.2928   -3.0286   -0.5524 H       1  LIG1       0.18000000000000005
     11 H           1.7853   -2.0913   -0.5465 H       1  LIG1       0.18000000000000005
     12 H          -0.8661   -1.1650    0.7181 H       1  LIG1       0.17000000000000004
     13 H           0.3860   -2.0617    1.5514 H       1  LIG1       0.18000000000000005
     14 H          -0.8549   -1.1953   -1.8772 H       1  LIG1       0.21999999999999997
     15 H           0.6943   -0.3301   -1.9866 H       1  LIG1       0.22999999999999998
     16 H           0.9330    0.0548    2.2691 H       1  LIG1       0.18999999999999995
     17 H           2.0037   -0.0859    0.9044 H       1  LIG1       0.19999999999999996
     18 H           0.1791   -3.0799   -3.0214 H       1  LIG1      0.44999999999999996
     19 H           0.3145   -1.7071   -3.9383 H       1  LIG1      0.44999999999999996
     20 H           1.6301   -2.2924   -3.1169 H       1  LIG1      0.44999999999999996
     21 H          -1.7495    3.6082    0.8674 H       1  LIG1       0.41000000000000003
     22 H          -0.4919    3.4380   -0.2902 H       1  LIG1       0.41000000000000003
     23 H          -1.1452    0.5478    2.5356 H       1  LIG1       0.41000000000000003
     24 H          -2.3095    1.7772    2.2615 H       1  LIG1       0.41000000000000003
     25 H           1.0982    1.7876    0.0965 H       1  LIG1            0.4
@<TRIPOS>BOND
     1    19     6    1
     2    20     6    1
     3     6    18    1
     4     6     3    1
     5    15     3    1
     6    14     3    1
     7     3     1    1
     8     1    10    1
     9     1    11    1
    10     1     2    1
    11    22     7    1
    12    25     9    1
    13     7    21    1
    14     7     5    2
    15     9     5    1
    16     9     4    1
    17    12     2    1
    18     2     4    1
    19     2    13    1
    20    17     4    1
    21     5     8    1
    22     4    16    1
    23     8    24    1
    24     8    23    1
