@<TRIPOS>MOLECULE
RADKZDMFGJYCBB-UHFFFAOYSA-N	6045159	-590.5626848620656
 21 21 0 0 0
SMALL
MULLIKEN NwChem

@<TRIPOS>ATOM
      1 C           0.9498    0.8326    3.1348 C.3     1  LIG1      -0.5199999999999996
      2 C          -0.1868    1.9380   -0.1937 C.ar    1  LIG1       -0.04999999999999982
      3 C          -0.9237    0.8711   -2.3474 C.3     1  LIG1       -0.1299999999999999
      4 C          -0.4092   -1.7505   -0.9381 C.2     1  LIG1       0.23000000000000043
      5 C           0.4668    0.8094    1.7117 C.ar    1  LIG1       0.28000000000000025
      6 C          -0.4307    0.7821   -0.9190 C.ar    1  LIG1       0.07000000000000028
      7 C          -0.1944   -0.4604   -0.2731 C.ar    1  LIG1       0.03000000000000025
      8 C           0.2563   -0.4396    1.0642 C.ar    1  LIG1       0.2699999999999996
      9 N           0.2476    1.9571    1.0826 N.ar    1  LIG1         -0.5
     10 O          -0.0804    0.1949   -3.2806 O.3     1  LIG1      -0.6500000000000004
     11 O          -0.2318   -2.8362   -0.3779 O.2     1  LIG1         -0.5
     12 O           0.5042   -1.5505    1.7718 O.3     1  LIG1      -0.6600000000000001
     13 H           0.2494    0.3042    3.7926 H       1  LIG1       0.18000000000000005
     14 H           1.0551    1.8666    3.4689 H       1  LIG1       0.17000000000000004
     15 H           1.9129    0.3168    3.2289 H       1  LIG1       0.18000000000000005
     16 H          -0.3479    2.9130   -0.6505 H       1  LIG1       0.17000000000000004
     17 H          -1.9029    0.3913   -2.4516 H       1  LIG1       0.18000000000000005
     18 H          -1.0535    1.9293   -2.6190 H       1  LIG1       0.17000000000000004
     19 H          -0.7294   -1.7293   -1.9901 H       1  LIG1       0.18000000000000005
     20 H           0.8105    0.5698   -3.1929 H       1  LIG1       0.43000000000000005
     21 H           0.3014   -2.3223    1.1814 H       1  LIG1       0.44999999999999996
@<TRIPOS>BOND
     1    10    20    1
     2    10     3    1
     3    18     3    1
     4    17     3    1
     5     3     6    1
     6    19     4    1
     7     4    11    2
     8     4     7    1
     9     6     7   ar
    10     6     2   ar
    11    16     2    1
    12     7     8   ar
    13     2     9   ar
    14     8     5   ar
    15     8    12    1
    16     9     5   ar
    17    21    12    1
    18     5     1    1
    19     1    15    1
    20     1    14    1
    21     1    13    1
