@<TRIPOS>MOLECULE
RAFZYSUICBQABU-PYDDKJGSSA-N	6045160	-859.8032883046144
 59 58 0 0 0
SMALL
MULLIKEN NwChem

@<TRIPOS>ATOM
      1 C          -3.0247   -3.5073   -0.6273 C.3     1  LIG1      -0.45999999999999996
      2 C          -2.2354   -2.7468    1.6422 C.3     1  LIG1      -0.45999999999999996
      3 C           2.3332   -1.7728   -1.5487 C.3     1  LIG1      -0.46999999999999975
      4 C           0.1228    3.2771   -1.5977 C.3     1  LIG1      -0.46999999999999975
      5 C           0.3606    2.1720    3.7118 C.3     1  LIG1        -0.54
      6 C          -0.0678   -3.7225   -1.4986 C.3     1  LIG1      -0.28000000000000025
      7 C          -0.4589    0.5866   -3.0068 C.3     1  LIG1      -0.28000000000000025
      8 C          -1.5554    1.3421    1.3854 C.3     1  LIG1      -0.29000000000000004
      9 C          -0.5325   -3.5262   -0.0452 C.3     1  LIG1      -0.2599999999999998
     10 C           0.0018   -2.4434   -2.3508 C.3     1  LIG1      -0.2699999999999996
     11 C           0.8983   -0.0956   -2.7595 C.3     1  LIG1      -0.2699999999999996
     12 C          -1.1757    1.0854   -1.7391 C.3     1  LIG1      -0.28000000000000025
     13 C          -1.1484    2.4597    0.4105 C.3     1  LIG1      -0.2699999999999996
     14 C          -0.3761    0.5030    1.9316 C.3     1  LIG1      -0.3799999999999999
     15 C           1.9848    1.2578    1.9923 C.2     1  LIG1      -0.2699999999999996
     16 C           3.1722    1.9965    2.4323 C.2     1  LIG1       0.23000000000000043
     17 C          -1.8904   -2.8228    0.1479 C.3     1  LIG1      -0.08000000000000007
     18 C           0.8918   -1.3089   -1.8058 C.3     1  LIG1      -0.08999999999999986
     19 C          -0.3550    2.0297   -0.8398 C.3     1  LIG1      -0.07000000000000028
     20 C           0.7463    1.3202    2.5284 C.2     1  LIG1      0.21999999999999975
     21 O           4.2523    1.9148    1.8691 O.2     1  LIG1         -0.5
     22 H          -3.1248   -4.5566   -0.3192 H       1  LIG1          0.14
     23 H          -2.8518   -3.4919   -1.7084 H       1  LIG1       0.15000000000000002
     24 H          -3.9841   -3.0114   -0.4372 H       1  LIG1          0.14
     25 H          -2.3992   -3.7518    2.0527 H       1  LIG1          0.14
     26 H          -1.4248   -2.2842    2.2164 H       1  LIG1       0.15000000000000002
     27 H          -3.1485   -2.1637    1.8135 H       1  LIG1          0.14
     28 H           2.7912   -2.1521   -2.4718 H       1  LIG1          0.14
     29 H           2.9529   -0.9430   -1.1880 H       1  LIG1       0.15000000000000002
     30 H           2.3822   -2.5705   -0.8002 H       1  LIG1       0.15000000000000002
     31 H          -0.7307    3.8539   -1.9785 H       1  LIG1          0.14
     32 H           0.7045    3.9334   -0.9399 H       1  LIG1          0.14
     33 H           0.7596    3.0197   -2.4503 H       1  LIG1       0.15000000000000002
     34 H          -0.1565    1.5597    4.4611 H       1  LIG1       0.18000000000000005
     35 H           1.2044    2.6634    4.1983 H       1  LIG1       0.18000000000000005
     36 H          -0.3473    2.9511    3.4035 H       1  LIG1       0.18999999999999995
     37 H           0.9158   -4.2089   -1.4829 H       1  LIG1          0.13
     38 H          -0.7379   -4.4325   -2.0004 H       1  LIG1          0.13
     39 H          -0.3001    1.4281   -3.6929 H       1  LIG1          0.13
     40 H          -1.1305   -0.1001   -3.5373 H       1  LIG1          0.13
     41 H          -2.0985    1.7938    2.2254 H       1  LIG1       0.15000000000000002
     42 H          -2.2629    0.6523    0.9100 H       1  LIG1       0.15000000000000002
     43 H           0.2305   -2.9607    0.5082 H       1  LIG1          0.14
     44 H          -0.5831   -4.5134    0.4381 H       1  LIG1          0.12
     45 H           0.3638   -2.7134   -3.3543 H       1  LIG1          0.12
     46 H          -1.0164   -2.0599   -2.4932 H       1  LIG1          0.14
     47 H           1.6050    0.6489   -2.3689 H       1  LIG1          0.13
     48 H           1.3102   -0.4185   -3.7270 H       1  LIG1          0.12
     49 H          -2.1014    1.6007   -2.0363 H       1  LIG1          0.12
     50 H          -1.4937    0.2158   -1.1508 H       1  LIG1       0.16000000000000003
     51 H          -0.5452    3.1972    0.9582 H       1  LIG1          0.14
     52 H          -2.0557    2.9912    0.0879 H       1  LIG1          0.13
     53 H          -0.7709   -0.1683    2.7077 H       1  LIG1       0.17000000000000004
     54 H           0.0188   -0.1386    1.1369 H       1  LIG1       0.18999999999999995
     55 H           2.1655    0.6145    1.1320 H       1  LIG1       0.16000000000000003
     56 H           3.0568    2.6582    3.3170 H       1  LIG1          0.14
     57 H          -1.7978   -1.7930   -0.2276 H       1  LIG1       0.15000000000000002
     58 H           0.4750   -0.9817   -0.8429 H       1  LIG1       0.15000000000000002
     59 H           0.5390    1.4922   -0.4989 H       1  LIG1           0.14
@<TRIPOS>BOND
     1    48    11    1
     2    39     7    1
     3    40     7    1
     4    45    10    1
     5     7    11    1
     6     7    12    1
     7    11    47    1
     8    11    18    1
     9    46    10    1
    10    28     3    1
    11    33     4    1
    12    10    18    1
    13    10     6    1
    14    49    12    1
    15    38     6    1
    16    31     4    1
    17    18     3    1
    18    18    58    1
    19    12    50    1
    20    12    19    1
    21    23     1    1
    22     4    32    1
    23     4    19    1
    24     3    29    1
    25     3    30    1
    26     6    37    1
    27     6     9    1
    28    19    59    1
    29    19    13    1
    30     1    24    1
    31     1    22    1
    32     1    17    1
    33    57    17    1
    34     9    17    1
    35     9    44    1
    36     9    43    1
    37    52    13    1
    38    17     2    1
    39    13    51    1
    40    13     8    1
    41    42     8    1
    42    55    15    1
    43    54    14    1
    44     8    14    1
    45     8    41    1
    46     2    27    1
    47     2    25    1
    48     2    26    1
    49    21    16    2
    50    14    20    1
    51    14    53    1
    52    15    16    1
    53    15    20    2
    54    16    56    1
    55    20     5    1
    56    36     5    1
    57     5    35    1
    58     5    34    1
