@<TRIPOS>MOLECULE
RBNPOMFGQQGHHO-UWTATZPHSA-M	6045161	-418.3003229099913
 12 11 0 0 0
SMALL
MULLIKEN NwChem

@<TRIPOS>ATOM
      1 C           0.5467    0.3703    1.4288 C.3     1  LIG1       -0.019999999999999574
      2 C          -0.4327   -0.4815    0.6013 C.3     1  LIG1       0.009999999999999787
      3 C           0.1414   -0.5697   -0.8505 C.2     1  LIG1       0.5199999999999996
      4 O           0.7671    1.6489    0.8453 O.3     1  LIG1      -0.7100000000000009
      5 O          -1.7173    0.1383    0.5669 O.3     1  LIG1      -0.6899999999999995
      6 O          -0.2018    0.4516   -1.5463 O.co2   1  LIG1      -0.6600000000000001
      7 O           0.8902   -1.5131   -1.1479 O.co2   1  LIG1      -0.6400000000000006
      8 H           1.4962   -0.1879    1.5286 H       1  LIG1          0.12
      9 H           0.1335    0.5270    2.4373 H       1  LIG1          0.14
     10 H          -0.5183   -1.4820    1.0449 H       1  LIG1          0.13
     11 H           0.5263    1.5419   -0.1029 H       1  LIG1           0.4
     12 H          -1.6403    0.6246   -0.2861 H       1  LIG1            0.4
@<TRIPOS>BOND
     1     6     3   ar
     2     7     3   ar
     3     3     2    1
     4    12     5    1
     5    11     4    1
     6     5     2    1
     7     2    10    1
     8     2     1    1
     9     4     1    1
    10     1     8    1
    11     1     9    1
