@<TRIPOS>MOLECULE
RCALBBVHQNUWNO-OSFDYRCISA-N	6045162	-2053.928782925994
 116 115 0 0 0
SMALL
MULLIKEN NwChem

@<TRIPOS>ATOM
      1 C           3.0142   -4.5225    7.4403 C.2     1  LIG1      -0.1299999999999999
      2 C           1.3543    4.1563   -7.2818 C.2     1  LIG1      -0.1299999999999999
      3 C           2.3418   -3.9769    6.4182 C.2     1  LIG1      -0.1200000000000001
      4 C           0.6434    4.0751   -6.1504 C.2     1  LIG1      -0.1200000000000001
      5 C           2.7366   -4.3298    8.9106 C.3     1  LIG1      -0.3200000000000003
      6 C           0.8498    4.5136   -8.6605 C.3     1  LIG1      -0.3600000000000003
      7 C           1.1937   -3.0064    6.5028 C.3     1  LIG1      -0.3200000000000003
      8 C          -0.8430    4.2519   -5.9806 C.3     1  LIG1      -0.3200000000000003
      9 C           1.8276   -5.4338    9.4979 C.3     1  LIG1      -0.2599999999999998
     10 C           1.5041    5.7779   -9.1736 C.2     1  LIG1      -0.1200000000000001
     11 C           1.4582   -1.6803    5.7571 C.3     1  LIG1      -0.2699999999999996
     12 C          -1.5638    2.9389   -5.5958 C.3     1  LIG1      -0.2599999999999998
     13 C           2.3585   -6.8648    9.3130 C.3     1  LIG1      -0.2699999999999996
     14 C           2.0205    5.9907  -10.3899 C.2     1  LIG1      -0.1299999999999999
     15 C           1.6101   -1.8083    4.2305 C.3     1  LIG1      -0.2699999999999996
     16 C          -1.0942    2.3111   -4.2718 C.3     1  LIG1      -0.2699999999999996
     17 C           3.7537   -7.1204    9.9100 C.3     1  LIG1      -0.2699999999999996
     18 C           2.0196    5.0340  -11.5566 C.3     1  LIG1      -0.3099999999999996
     19 C           0.4088   -2.4430    3.5035 C.3     1  LIG1      -0.2699999999999996
     20 C          -1.2511    3.2087   -3.0325 C.3     1  LIG1      -0.28000000000000025
     21 C           3.8849   -6.7967   11.4083 C.3     1  LIG1      -0.2699999999999996
     22 C           0.8199    5.2557  -12.5063 C.3     1  LIG1      -0.2599999999999998
     23 C          -0.9532   -1.7857    3.7929 C.3     1  LIG1      -0.28000000000000025
     24 C          -2.6884    3.6742   -2.7401 C.3     1  LIG1      -0.2599999999999998
     25 C           2.8886   -7.5368   12.3211 C.3     1  LIG1      -0.28000000000000025
     26 C           0.7092    6.6787  -13.0821 C.3     1  LIG1      -0.28000000000000025
     27 C          -1.0376   -0.2835    3.4783 C.3     1  LIG1      -0.2699999999999996
     28 C          -3.7119    2.5314   -2.6244 C.3     1  LIG1      -0.2999999999999998
     29 C           2.9127   -9.0712   12.2096 C.3     1  LIG1      -0.28000000000000025
     30 C           1.9221    7.1579  -13.8967 C.3     1  LIG1      -0.28000000000000025
     31 C          -0.8734    0.0556    1.9888 C.3     1  LIG1       -0.3600000000000003
     32 C          -3.3460    1.4211   -1.6071 C.3     1  LIG1       -0.3700000000000001
     33 C           4.2840   -9.6945   12.4972 C.3     1  LIG1       -0.04999999999999982
     34 C           2.2556    6.2737  -15.1031 C.3     1  LIG1       -0.04999999999999982
     35 C          -6.4668    0.7542    0.1611 C.3     1  LIG1       -0.07000000000000028
     36 C          -4.3492   -0.5278    0.8455 C.3     1  LIG1       -0.11000000000000032
     37 C          -5.1371    0.7817    0.9195 C.3     1  LIG1       0.11000000000000032
     38 C          -1.9550   -0.4786    1.0773 C.2     1  LIG1       0.6299999999999999
     39 C          -3.2532    2.0043   -0.2134 C.2     1  LIG1       0.5999999999999996
     40 O           4.7811   -9.3711   13.7956 O.3     1  LIG1      -0.6799999999999997
     41 O           1.1761    6.1653  -16.0285 O.3     1  LIG1      -0.6699999999999999
     42 O          -6.3630    0.4884   -1.2302 O.3     1  LIG1      -0.6500000000000004
     43 O          -1.7883   -0.8812   -0.0536 O.2     1  LIG1      -0.5199999999999996
     44 O          -2.2971    2.6446    0.1609 O.2     1  LIG1         -0.5
     45 O          -3.1817   -0.3753    1.6665 O.3     1  LIG1      -0.47000000000000064
     46 O          -4.3543    1.9556    0.6084 O.3     1  LIG1      -0.5099999999999998
     47 H           3.8206   -5.2167    7.2024 H       1  LIG1          0.13
     48 H           2.4303    3.9840   -7.2254 H       1  LIG1          0.13
     49 H           2.6503   -4.2474    5.4079 H       1  LIG1          0.13
     50 H           1.1846    3.8234   -5.2377 H       1  LIG1          0.14
     51 H           3.6879   -4.3093    9.4591 H       1  LIG1       0.15000000000000002
     52 H           2.2634   -3.3577    9.0921 H       1  LIG1       0.15000000000000002
     53 H           1.0388    3.6794   -9.3488 H       1  LIG1       0.16000000000000003
     54 H          -0.2387    4.6521   -8.6435 H       1  LIG1       0.17000000000000004
     55 H           0.2917   -3.4783    6.0859 H       1  LIG1       0.15000000000000002
     56 H           0.9546   -2.7806    7.5475 H       1  LIG1       0.15000000000000002
     57 H          -1.2974    4.6454   -6.8964 H       1  LIG1       0.15000000000000002
     58 H          -1.0295    5.0058   -5.2016 H       1  LIG1       0.15000000000000002
     59 H           1.6664   -5.2281   10.5648 H       1  LIG1          0.14
     60 H           0.8428   -5.3628    9.0174 H       1  LIG1          0.13
     61 H           1.5460    6.5895   -8.4464 H       1  LIG1          0.13
     62 H           0.6400   -0.9839    5.9851 H       1  LIG1          0.14
     63 H           2.3694   -1.2256    6.1677 H       1  LIG1          0.13
     64 H          -1.4178    2.2109   -6.4054 H       1  LIG1          0.13
     65 H          -2.6439    3.1368   -5.5509 H       1  LIG1          0.14
     66 H           1.6376   -7.5658    9.7539 H       1  LIG1          0.14
     67 H           2.3886   -7.0977    8.2399 H       1  LIG1          0.13
     68 H           2.4440    6.9758  -10.5883 H       1  LIG1          0.14
     69 H           1.8010   -0.8077    3.8195 H       1  LIG1          0.14
     70 H           2.5076   -2.3961    3.9989 H       1  LIG1          0.14
     71 H          -0.0405    2.0192   -4.3624 H       1  LIG1          0.14
     72 H          -1.6440    1.3721   -4.1179 H       1  LIG1          0.14
     73 H           4.0195   -8.1730    9.7398 H       1  LIG1          0.14
     74 H           4.5026   -6.5332    9.3598 H       1  LIG1          0.14
     75 H           2.9574    5.1470  -12.1180 H       1  LIG1       0.15000000000000002
     76 H           1.9951    3.9940  -11.2085 H       1  LIG1       0.15000000000000002
     77 H           0.6065   -2.4285    2.4234 H       1  LIG1          0.14
     78 H           0.3397   -3.5059    3.7721 H       1  LIG1          0.14
     79 H          -0.6140    4.0969   -3.1372 H       1  LIG1          0.14
     80 H          -0.8724    2.6784   -2.1513 H       1  LIG1          0.14
     81 H           4.9153   -7.0195   11.7212 H       1  LIG1          0.14
     82 H           3.7606   -5.7173   11.5628 H       1  LIG1          0.14
     83 H           0.8764    4.5188  -13.3211 H       1  LIG1          0.14
     84 H          -0.1026    5.0344  -11.9537 H       1  LIG1          0.14
     85 H          -1.7306   -2.3122    3.2200 H       1  LIG1          0.14
     86 H          -1.2114   -1.9356    4.8492 H       1  LIG1       0.15000000000000002
     87 H          -3.0322    4.3580   -3.5275 H       1  LIG1       0.15000000000000002
     88 H          -2.6777    4.2518   -1.8085 H       1  LIG1          0.14
     89 H           3.0865   -7.2564   13.3655 H       1  LIG1          0.13
     90 H           1.8711   -7.1849   12.1113 H       1  LIG1       0.15000000000000002
     91 H          -0.1882    6.7366  -13.7155 H       1  LIG1          0.14
     92 H           0.5350    7.3831  -12.2586 H       1  LIG1          0.14
     93 H          -2.0027    0.1041    3.8198 H       1  LIG1       0.15000000000000002
     94 H          -0.2683    0.2610    4.0383 H       1  LIG1       0.16000000000000003
     95 H          -3.8409    2.0474   -3.5997 H       1  LIG1       0.17000000000000004
     96 H          -4.6925    2.9583   -2.3614 H       1  LIG1       0.16000000000000003
     97 H           2.1865   -9.4870   12.9194 H       1  LIG1          0.14
     98 H           2.5938   -9.3865   11.2056 H       1  LIG1       0.15000000000000002
     99 H           1.7221    8.1744  -14.2576 H       1  LIG1          0.14
    100 H           2.8123    7.2203  -13.2538 H       1  LIG1       0.15000000000000002
    101 H          -0.9071    1.1447    1.8494 H       1  LIG1       0.18999999999999995
    102 H           0.0827   -0.2915    1.5873 H       1  LIG1       0.18000000000000005
    103 H          -2.3724    0.9890   -1.8458 H       1  LIG1       0.18999999999999995
    104 H          -4.0882    0.6268   -1.6636 H       1  LIG1       0.17000000000000004
    105 H           4.2087  -10.7865   12.4750 H       1  LIG1       0.15000000000000002
    106 H           5.0078   -9.4070   11.7169 H       1  LIG1          0.14
    107 H           3.0826    6.7152  -15.6700 H       1  LIG1       0.15000000000000002
    108 H           2.5908    5.2777  -14.7690 H       1  LIG1          0.14
    109 H          -7.0840   -0.0484    0.5827 H       1  LIG1       0.18000000000000005
    110 H          -6.9847    1.7050    0.3498 H       1  LIG1       0.17000000000000004
    111 H          -4.0639   -0.8158   -0.1654 H       1  LIG1       0.19999999999999996
    112 H          -4.9610   -1.3273    1.2764 H       1  LIG1       0.19999999999999996
    113 H          -5.3869    0.9362    1.9771 H       1  LIG1       0.18999999999999995
    114 H           5.0315   -8.4343   13.7890 H       1  LIG1       0.43000000000000005
    115 H           0.4666    5.6656  -15.5951 H       1  LIG1       0.43000000000000005
    116 H          -6.1308    1.3187   -1.6725 H       1  LIG1       0.43999999999999995
@<TRIPOS>BOND
     1    41   115    1
     2    41    34    1
     3   107    34    1
     4    34   108    1
     5    34    30    1
     6    99    30    1
     7    30   100    1
     8    30    26    1
     9    91    26    1
    10    83    22    1
    11    26    22    1
    12    26    92    1
    13    22    84    1
    14    22    18    1
    15    75    18    1
    16    18    76    1
    17    18    14    1
    18    68    14    1
    19    14    10    2
    20    53     6    1
    21    10     6    1
    22    10    61    1
    23     6    54    1
    24     6     2    1
    25     2    48    1
    26     2     4    2
    27    57     8    1
    28    64    12    1
    29     4     8    1
    30     4    50    1
    31     8    12    1
    32     8    58    1
    33    12    65    1
    34    12    16    1
    35    71    16    1
    36    16    72    1
    37    16    20    1
    38    95    28    1
    39    87    24    1
    40    79    20    1
    41    20    24    1
    42    20    80    1
    43    24    28    1
    44    24    88    1
    45    28    96    1
    46    28    32    1
    47   103    32    1
    48   116    42    1
    49   104    32    1
    50    32    39    1
    51    42    35    1
    52    39    44    2
    53    39    46    1
    54   111    36    1
    55    43    38    2
    56    35   110    1
    57    35   109    1
    58    35    37    1
    59    46    37    1
    60    36    37    1
    61    36   112    1
    62    36    45    1
    63    37   113    1
    64    38    45    1
    65    38    31    1
    66   102    31    1
    67   101    31    1
    68    31    27    1
    69    77    19    1
    70    85    23    1
    71    27    23    1
    72    27    93    1
    73    27    94    1
    74    19    78    1
    75    19    23    1
    76    19    15    1
    77    23    86    1
    78    69    15    1
    79    70    15    1
    80    15    11    1
    81    49     3    1
    82    11    62    1
    83    11    63    1
    84    11     7    1
    85    55     7    1
    86     3     7    1
    87     3     1    2
    88     7    56    1
    89    47     1    1
    90     1     5    1
    91    67    13    1
    92     5    52    1
    93     5    51    1
    94     5     9    1
    95    60     9    1
    96    13     9    1
    97    13    66    1
    98    13    17    1
    99    74    17    1
   100     9    59    1
   101    73    17    1
   102    17    21    1
   103    98    29    1
   104    21    82    1
   105    21    81    1
   106    21    25    1
   107   106    33    1
   108    90    25    1
   109    29    25    1
   110    29    33    1
   111    29    97    1
   112    25    89    1
   113   105    33    1
   114    33    40    1
   115   114    40    1
