@<TRIPOS>MOLECULE
RCWCGLALNCIQNM-VKHMYHEASA-N	6045164	-2764.184661802554
 17 16 0 0 0
SMALL
MULLIKEN NwChem

@<TRIPOS>ATOM
      1 C           0.1325    0.1439   -0.8564 C.3     1  LIG1       -0.2699999999999996
      2 C          -0.3202   -1.3152   -0.8736 C.3     1  LIG1       -0.34999999999999964
      3 CA         -0.4486    0.9472    0.3273 C.3     1  LIG1       -0.05999999999999961
      4 C           0.1238    2.3633    0.3083 C.2     1  LIG1       0.5800000000000001
      5 N          -1.9065    0.9251    0.2907 N.3     1  LIG1       -0.7400000000000002
      6 O          -0.5117    3.3671    0.0679 O.2     1  LIG1       -0.5099999999999998
      7 OXT         1.4533    2.3797    0.5729 O.3     1  LIG1       -0.5800000000000001
      8 SE          0.3474   -2.4132    0.6513 Se      1  LIG1       -0.21000000000000085
      9 H          -0.2042    0.6142   -1.7933 H       1  LIG1       0.17000000000000004
     10 H           1.2253    0.2120   -0.8396 H       1  LIG1       0.17000000000000004
     11 H          -1.4073   -1.3719   -0.7871 H       1  LIG1       0.18999999999999995
     12 H          -0.0121   -1.8123   -1.7957 H       1  LIG1       0.19999999999999996
     13 HA         -0.1112    0.4648    1.2521 H       1  LIG1       0.19999999999999996
     14 H1         -2.2738    1.2674    1.1766 H       1  LIG1       0.32999999999999996
     15 H2         -2.2215    1.6002   -0.4067 H       1  LIG1       0.31999999999999995
     16 HXT         1.7361    3.3123    0.5186 H       1  LIG1       0.44999999999999996
     17 H           1.7736   -2.2951    0.2632 H       1  LIG1           0.13
@<TRIPOS>BOND
     1    12     2    1
     2     9     1    1
     3     2     1    1
     4     2    11    1
     5     2     8    1
     6     1    10    1
     7     1     3    1
     8    15     5    1
     9     6     4    2
    10    17     8    1
    11     5     3    1
    12     5    14    1
    13     4     3    1
    14     4     7    1
    15     3    13    1
    16    16     7    1
