@<TRIPOS>MOLECULE
RDHQFKQIGNGIED-MRVPVSSYSA-N	6045165	-708.6166273546894
 31 31 0 0 0
SMALL
MULLIKEN NwChem

@<TRIPOS>ATOM
      1 C          -0.3155   -0.5971    2.8737 C.3     1  LIG1       -0.5099999999999998
      2 C           1.3378   -2.2306   -0.0550 C.3     1  LIG1      -0.3200000000000003
      3 C           1.4627   -2.3155   -2.4983 C.3     1  LIG1      -0.33000000000000007
      4 C           2.7959   -0.6627   -1.2695 C.3     1  LIG1      -0.33000000000000007
      5 C          -1.0697    1.4951   -0.6439 C.3     1  LIG1       -0.41000000000000014
      6 C           0.3192   -0.4041   -1.4882 C.3     1  LIG1      -0.16000000000000014
      7 C          -0.7366   -0.2203    1.4578 C.3     1  LIG1       0.7000000000000002
      8 C           0.2939    0.7682   -0.4888 C.3     1  LIG1       0.13999999999999968
      9 C          -1.6485    1.9566    0.6984 C.2     1  LIG1       0.5999999999999996
     10 N           1.4859   -1.3916   -1.3157 N.4     1  LIG1       -0.3700000000000001
     11 O          -1.3385   -1.0587    0.7318 O.3     1  LIG1      -0.6699999999999999
     12 O          -2.2136    3.0290    0.8027 O.2     1  LIG1      -0.5600000000000005
     13 O          -1.5347    1.1055    1.7058 O.3     1  LIG1      -0.5299999999999994
     14 O           0.5460    0.3553    0.8281 O.3     1  LIG1      -0.5800000000000001
     15 H          -1.2167   -0.8264    3.4478 H       1  LIG1       0.15000000000000002
     16 H           0.2316    0.2118    3.3632 H       1  LIG1       0.15000000000000002
     17 H           0.3091   -1.4965    2.8360 H       1  LIG1       0.16000000000000003
     18 H           0.2806   -2.4597    0.0909 H       1  LIG1       0.20999999999999996
     19 H           1.9635   -3.1182   -0.1722 H       1  LIG1       0.19999999999999996
     20 H           1.6508   -1.6237    0.7880 H       1  LIG1       0.20999999999999996
     21 H           1.5722   -1.7333   -3.4150 H       1  LIG1       0.21999999999999997
     22 H           2.2828   -3.0313   -2.4123 H       1  LIG1       0.21999999999999997
     23 H           0.5076   -2.8429   -2.5045 H       1  LIG1       0.21999999999999997
     24 H           2.8998   -0.0554   -2.1713 H       1  LIG1       0.20999999999999996
     25 H           2.8007   -0.0314   -0.3820 H       1  LIG1       0.21999999999999997
     26 H           3.6036   -1.3960   -1.2154 H       1  LIG1       0.21999999999999997
     27 H          -0.9915    2.3692   -1.2937 H       1  LIG1       0.17000000000000004
     28 H          -1.8169    0.8130   -1.0627 H       1  LIG1       0.18999999999999995
     29 H          -0.5834   -0.9955   -1.3477 H       1  LIG1       0.20999999999999996
     30 H           0.3970   -0.0306   -2.5155 H       1  LIG1       0.19999999999999996
     31 H           1.0941    1.4760   -0.7436 H       1  LIG1       0.17000000000000004
@<TRIPOS>BOND
     1    21     3    1
     2    30     6    1
     3    23     3    1
     4     3    22    1
     5     3    10    1
     6    24     4    1
     7     6    29    1
     8     6    10    1
     9     6     8    1
    10    10     4    1
    11    10     2    1
    12    27     5    1
    13     4    26    1
    14     4    25    1
    15    28     5    1
    16    31     8    1
    17     5     8    1
    18     5     9    1
    19     8    14    1
    20    19     2    1
    21     2    18    1
    22     2    20    1
    23     9    12    2
    24     9    13    1
    25    11     7    1
    26    14     7    1
    27     7    13    1
    28     7     1    1
    29    17     1    1
    30     1    16    1
    31     1    15    1
