@<TRIPOS>MOLECULE
RFMMMVDNIPUKGG-YFKPBYRVSA-L	6045167	-703.1991872684762
 22 21 0 0 0
SMALL
MULLIKEN NwChem

@<TRIPOS>ATOM
      1 C           0.3102    2.2177   -0.5157 C.3     0  UNK0       -0.5599999999999996
      2 CB          0.3238   -1.5888   -0.2767 C.3     1  GLU1      -0.28000000000000025
      3 CG          1.6050   -1.0800    0.4175 C.3     1  GLU1       -0.3700000000000001
      4 C           0.6469    1.4364   -1.8245 C.2     0  UNK0       0.46999999999999975
      5 CA         -0.5565   -0.5712   -1.0854 C.3     1  GLU1       -0.04999999999999982
      6 CD          1.5298   -0.8270    1.9412 C.2     1  GLU1       0.5499999999999998
      7 C          -1.6874    0.1339   -0.2708 C.2     1  GLU1       0.5599999999999996
      8 N           0.2235    0.1933   -2.0405 N.am    1  GLU1      -0.5999999999999996
      9 O           1.3268    2.0891   -2.6674 O.2     0  UNK0      -0.7200000000000006
     10 OE2         2.5508   -1.0626    2.6201 O.co2   1  GLU1      -0.6500000000000004
     11 OE1         0.4211   -0.3720    2.3995 O.co2   1  GLU1      -0.6699999999999999
     12 O          -2.6725    0.5761   -0.8574 O.2     1  GLU1      -0.5800000000000001
     13 OXT        -1.6320    0.1961    1.0565 O.3     1  GLU1      -0.6600000000000001
     14 H           0.4508    1.6378    0.4031 H       0  UNK0          0.14
     15 H          -0.7374    2.5471   -0.5252 H       0  UNK0       0.15000000000000002
     16 H           0.9523    3.1046   -0.4815 H       0  UNK0          0.13
     17 HB1        -0.3055   -2.1325    0.4451 H       1  GLU1          0.13
     18 HB2         0.6383   -2.3227   -1.0320 H       1  GLU1          0.13
     19 HG1         2.4278   -1.7892    0.2600 H       1  GLU1          0.13
     20 HG2         1.9163   -0.1528   -0.0818 H       1  GLU1       0.15000000000000002
     21 HA         -1.1944   -1.2337   -1.7023 H       1  GLU1          0.13
     22 HXT        -0.7284   -0.0921    1.4946 H       1  GLU1           0.47
@<TRIPOS>BOND
     1     9     4    2
     2     8     4   am
     3     8     5    1
     4     4     1    1
     5    21     5    1
     6     5     2    1
     7     5     7    1
     8    18     2    1
     9    12     7    2
    10    15     1    1
    11     1    16    1
    12     1    14    1
    13     2     3    1
    14     2    17    1
    15     7    13    1
    16    20     3    1
    17    19     3    1
    18     3     6    1
    19    13    22    1
    20     6    11   ar
    21     6    10   ar
