@<TRIPOS>MOLECULE
RFSUNEUAIZKAJO-ARQDHWQXSA-N	6045168	-687.0138926787384
 24 24 0 0 0
SMALL
MULLIKEN NwChem

@<TRIPOS>ATOM
      1 C           0.3902    0.9668   -2.4538 C.3     1  LIG1       -0.05999999999999961
      2 C          -1.4664   -1.2502    1.0814 C.3     1  LIG1       -0.05999999999999961
      3 C          -0.3724    0.5876   -1.1837 C.3     1  LIG1       0.11000000000000032
      4 C           0.1558    1.2699    0.1082 C.3     1  LIG1       0.05999999999999961
      5 C           0.7353    0.0900    0.9060 C.3     1  LIG1       0.07000000000000028
      6 C          -0.0982   -1.1104    0.4122 C.3     1  LIG1       0.4800000000000004
      7 O           0.1213    2.2944   -2.8661 O.3     1  LIG1      -0.6600000000000001
      8 O          -1.3206   -1.5087    2.4688 O.3     1  LIG1      -0.6600000000000001
      9 O          -0.9458    1.8992    0.7464 O.3     1  LIG1      -0.6699999999999999
     10 O           2.1151   -0.1367    0.5985 O.3     1  LIG1      -0.6699999999999999
     11 O           0.5611   -2.3233    0.5897 O.3     1  LIG1      -0.6799999999999997
     12 O          -0.2351   -0.8281   -0.9938 O.3     1  LIG1      -0.5600000000000005
     13 H           0.0651    0.3152   -3.2692 H       1  LIG1       0.17000000000000004
     14 H           1.4718    0.7908   -2.3067 H       1  LIG1       0.15000000000000002
     15 H          -2.0288   -0.3197    0.9860 H       1  LIG1       0.17000000000000004
     16 H          -2.0091   -2.0508    0.5566 H       1  LIG1       0.15000000000000002
     17 H          -1.4265    0.8641   -1.3099 H       1  LIG1       0.16000000000000003
     18 H           0.9591    1.9957   -0.1016 H       1  LIG1       0.17000000000000004
     19 H           0.6725    0.2192    1.9881 H       1  LIG1       0.18000000000000005
     20 H           0.4105    2.8984   -2.1643 H       1  LIG1       0.43999999999999995
     21 H          -0.7495   -2.2933    2.5268 H       1  LIG1       0.42000000000000004
     22 H          -0.6505    2.2321    1.6089 H       1  LIG1       0.43999999999999995
     23 H           2.1839   -0.2068   -0.3699 H       1  LIG1       0.43999999999999995
     24 H           1.5151   -2.1183    0.5903 H       1  LIG1       0.43000000000000005
@<TRIPOS>BOND
     1    13     1    1
     2     7     1    1
     3     7    20    1
     4     1    14    1
     5     1     3    1
     6    17     3    1
     7     3    12    1
     8     3     4    1
     9    12     6    1
    10    23    10    1
    11    18     4    1
    12     4     9    1
    13     4     5    1
    14     6    11    1
    15     6     5    1
    16     6     2    1
    17    16     2    1
    18    11    24    1
    19    10     5    1
    20     9    22    1
    21     5    19    1
    22    15     2    1
    23     2     8    1
    24     8    21    1
