@<TRIPOS>MOLECULE
RGHMISIYKIHAJW-SSDOTTSWSA-M	6045169	-685.1955900533785
 20 20 0 0 0
SMALL
MULLIKEN NwChem

@<TRIPOS>ATOM
      1 C           0.8409    0.4629   -0.6198 C.2     1  LIG1      -0.20999999999999996
      2 C           0.9057   -0.1647   -1.8557 C.2     1  LIG1      -0.29000000000000004
      3 C          -0.8156   -1.1369    0.0944 C.2     1  LIG1      -0.29000000000000004
      4 C          -0.0128   -0.0087    0.3969 C.3     1  LIG1       0.040000000000000036
      5 C           0.1146   -1.3194   -2.2166 C.2     1  LIG1       0.3600000000000003
      6 C          -0.7688   -1.7607   -1.1347 C.2     1  LIG1       0.21999999999999975
      7 C          -0.0415    0.6098    1.7661 C.3     1  LIG1           0.0
      8 C          -0.4062    2.0865    1.6724 C.2     1  LIG1       0.5800000000000001
      9 O           0.1648   -1.8955   -3.3329 O.2     1  LIG1        -0.75
     10 O          -1.5560   -2.8677   -1.4204 O.2     1  LIG1      -0.6999999999999993
     11 O           1.1891    0.4520    2.5026 O.3     1  LIG1      -0.6699999999999999
     12 O          -1.5275    2.5428    1.7970 O.2     1  LIG1      -0.5299999999999994
     13 O           0.6575    2.8934    1.3920 O.3     1  LIG1      -0.5800000000000001
     14 H           1.4550    1.3423   -0.4293 H       1  LIG1          0.13
     15 H           1.5734    0.2106   -2.6296 H       1  LIG1       0.08999999999999997
     16 H          -1.4889   -1.5270    0.8639 H       1  LIG1          0.14
     17 H          -0.8494    0.1585    2.3545 H       1  LIG1       0.16000000000000003
     18 H          -2.0950   -3.0337   -0.6314 H       1  LIG1       0.43000000000000005
     19 H           1.8147    0.1152    1.8411 H       1  LIG1       0.41000000000000003
     20 H           0.2655    3.7768    1.2635 H       1  LIG1       0.43999999999999995
@<TRIPOS>BOND
     1     9     5    2
     2    15     2    1
     3     5     2    1
     4     5     6    1
     5     2     1    2
     6    10     6    1
     7    10    18    1
     8     6     3    2
     9     1    14    1
    10     1     4    1
    11     3     4    1
    12     3    16    1
    13     4     7    1
    14    20    13    1
    15    13     8    1
    16     8     7    1
    17     8    12    2
    18     7    17    1
    19     7    11    1
    20    19    11    1
