@<TRIPOS>MOLECULE
RGHNJXZEOKUKBD-SQOUGZDYSA-M	6045170	-761.8045833646206
 24 23 0 0 0
SMALL
MULLIKEN NwChem

@<TRIPOS>ATOM
      1 C           0.8731   -1.4419    2.3651 C.3     1  LIG1       -0.07000000000000028
      2 C           1.1867   -1.5080    0.8600 C.3     1  LIG1       0.07000000000000028
      3 C          -0.0181   -1.1652   -0.0275 C.3     1  LIG1       0.1200000000000001
      4 C          -0.3986    0.3285   -0.0299 C.3     1  LIG1       0.13999999999999968
      5 C           0.4803    1.1765   -0.9769 C.3     1  LIG1       -0.009999999999999787
      6 C          -0.1620    2.6025   -1.0162 C.2     1  LIG1       0.5300000000000002
      7 O           0.0191   -2.5228    2.7424 O.3     1  LIG1      -0.6899999999999995
      8 O           1.6934   -2.8106    0.5637 O.3     1  LIG1      -0.6799999999999997
      9 O          -1.1590   -1.9394    0.4145 O.3     1  LIG1      -0.7100000000000009
     10 O          -1.7715    0.3849   -0.4356 O.3     1  LIG1      -0.7400000000000002
     11 O           0.4826    0.6247   -2.2899 O.3     1  LIG1      -0.6799999999999997
     12 O          -1.1353    2.6355   -1.8551 O.co2   1  LIG1      -0.6600000000000001
     13 O           0.2447    3.4731   -0.2386 O.co2   1  LIG1      -0.6300000000000008
     14 H           0.4349   -0.4686    2.6321 H       1  LIG1       0.15000000000000002
     15 H           1.8022   -1.5651    2.9326 H       1  LIG1       0.16000000000000003
     16 H           1.9897   -0.7994    0.6223 H       1  LIG1       0.16000000000000003
     17 H           0.2247   -1.4520   -1.0574 H       1  LIG1          0.14
     18 H          -0.3104    0.7554    0.9827 H       1  LIG1          0.14
     19 H           1.5069    1.2232   -0.5958 H       1  LIG1          0.14
     20 H          -0.7479   -2.4289    2.1359 H       1  LIG1       0.43000000000000005
     21 H           1.1127   -3.4044    1.0727 H       1  LIG1       0.41000000000000003
     22 H          -1.9131   -1.4044    0.0914 H       1  LIG1       0.43999999999999995
     23 H          -1.8455    1.1584   -1.0541 H       1  LIG1       0.42000000000000004
     24 H          -0.2358    1.1568   -2.7021 H       1  LIG1       0.41000000000000003
@<TRIPOS>BOND
     1    24    11    1
     2    11     5    1
     3    12     6   ar
     4    17     3    1
     5    23    10    1
     6     6     5    1
     7     6    13   ar
     8     5    19    1
     9     5     4    1
    10    10     4    1
    11     4     3    1
    12     4    18    1
    13     3     9    1
    14     3     2    1
    15    22     9    1
    16     8     2    1
    17     8    21    1
    18    16     2    1
    19     2     1    1
    20    20     7    1
    21     1    14    1
    22     1     7    1
    23     1    15    1
