@<TRIPOS>MOLECULE
RGJOEKWQDUBAIZ-IBOSZNHHSA-J	11085200	-3828.904404503639
 80 82 0 0 0
SMALL
MULLIKEN NwChem

@<TRIPOS>ATOM
      1 C           4.3837    0.5812   -1.7086 C.3     1  LIG1      -0.46999999999999975
      2 C           4.2249    1.0166    0.7656 C.3     1  LIG1      -0.4900000000000002
      3 C           9.0034   -0.7139   -2.7619 C.3     1  LIG1       -0.33000000000000007
      4 C           7.4992   -0.4542   -2.4903 C.3     1  LIG1       -0.13999999999999968
      5 C          10.0144    1.3937   -1.0421 C.3     1  LIG1       -0.11000000000000032
      6 C           9.0646    2.5694   -0.7382 C.3     1  LIG1       -0.40000000000000036
      7 C          -3.0392   -0.4352    2.7963 C.3     1  LIG1       -0.08000000000000007
      8 C           3.2329   -1.0889   -0.2068 C.3     1  LIG1       -0.07000000000000028
      9 C          -7.9300    3.8764   -1.3375 C.ar    1  LIG1       0.15000000000000036
     10 C          -4.2837    1.7255   -0.3107 C.ar    1  LIG1       0.20000000000000018
     11 C          -4.5423   -0.2343    2.7366 C.3     1  LIG1       0.1299999999999999
     12 C           9.8376    0.5062   -3.2683 C.2     1  LIG1       0.4500000000000002
     13 C          -5.4356    2.9878   -1.5760 C.ar    1  LIG1       0.1900000000000004
     14 C          -6.5138   -0.1607    1.3841 C.3     1  LIG1       0.08999999999999986
     15 C          -5.2874   -1.0545    1.6762 C.3     1  LIG1       0.07000000000000028
     16 C           5.7413   -0.8204   -0.0520 C.3     1  LIG1       0.04999999999999982
     17 C          -5.9940    3.7957   -2.5763 C.ar    1  LIG1       0.4500000000000002
     18 C          -6.2668    2.6853   -0.4847 C.ar    1  LIG1          0.54
     19 C           6.1015   -1.9039   -1.1393 C.2     1  LIG1       0.46999999999999975
     20 C          -5.9490    1.2508    1.5854 C.3     1  LIG1          0.25
     21 C           4.3848   -0.0678   -0.3164 C.3     1  LIG1       0.08000000000000007
     22 N          -5.2592    4.1781   -3.6783 N.pl3   1  LIG1      -0.7800000000000002
     23 N          10.3484    1.4251   -2.4346 N.am    1  LIG1      -0.6200000000000001
     24 N           6.8101   -1.7016   -2.2190 N.am    1  LIG1      -0.5899999999999999
     25 N          -7.2607    4.2342   -2.4524 N.ar    1  LIG1        -0.54
     26 N          -7.5284    3.1210   -0.3147 N.ar    1  LIG1        -0.54
     27 N          -4.2037    2.3824   -1.4516 N.ar    1  LIG1      -0.5800000000000001
     28 N          -5.5087    1.8743    0.3221 N.ar    1  LIG1      -0.5199999999999996
     29 O          10.0264    0.5505   -4.5154 O.2     1  LIG1      -0.7200000000000006
     30 O          -7.4962   -0.3914    2.3848 O.3     1  LIG1      -0.6899999999999995
     31 O           5.6790   -1.5155    1.1943 O.3     1  LIG1      -0.7100000000000009
     32 O           5.5887   -3.0393   -0.8143 O.2     1  LIG1      -0.7300000000000004
     33 O          -6.6003   -2.8392   -0.1151 O.2     1  LIG1      -0.7100000000000009
     34 O          -6.8321   -4.5462    1.8954 O.3     1  LIG1      -0.6799999999999997
     35 O          -4.5492   -4.1352    0.8318 O.3     1  LIG1        -0.75
     36 O          -2.5778   -2.2726   -0.0921 O.2     1  LIG1      -0.6400000000000006
     37 O          -0.9110   -2.2973    1.9589 O.3     1  LIG1      -0.7200000000000006
     38 O           1.1443   -0.7011    1.9178 O.3     1  LIG1      -0.7300000000000004
     39 O           0.7031    1.4903    0.5750 O.2     1  LIG1      -0.5999999999999996
     40 O          -2.4279   -0.2584    1.5214 O.3     1  LIG1      -0.5800000000000001
     41 O           1.9262   -0.5065   -0.5327 O.3     1  LIG1      -0.5500000000000007
     42 O          -4.8401    1.1557    2.4477 O.3     1  LIG1      -0.5399999999999991
     43 O          -5.6762   -2.2913    2.2291 O.3     1  LIG1      -0.6400000000000006
     44 O          -0.5241   -0.7269   -0.0402 O.3     1  LIG1      -0.6300000000000008
     45 P          -6.0499   -3.5490    1.0950 P.3     1  LIG1       1.0700000000000003
     46 P          -1.6445   -1.5703    0.8465 P.3     1  LIG1       1.2400000000000002
     47 P           0.8349    0.0135    0.5196 P.3     1  LIG1       1.2100000000000009
     48 S           8.6207    2.8103    1.0698 S.3     1  LIG1      -0.21999999999999886
     49 H           5.2002    1.3085   -1.7948 H       1  LIG1       0.15000000000000002
     50 H           3.4340    1.0992   -1.8834 H       1  LIG1          0.14
     51 H           4.5320   -0.1716   -2.4895 H       1  LIG1       0.15000000000000002
     52 H           4.2601    0.5596    1.7603 H       1  LIG1       0.15000000000000002
     53 H           3.2793    1.5596    0.6604 H       1  LIG1       0.16000000000000003
     54 H           5.0459    1.7441    0.6943 H       1  LIG1       0.15000000000000002
     55 H           9.0673   -1.4770   -3.5446 H       1  LIG1       0.09999999999999998
     56 H           9.4295   -1.1596   -1.8500 H       1  LIG1          0.12
     57 H           7.0836    0.0223   -3.3966 H       1  LIG1       0.09999999999999998
     58 H           7.4149    0.3103   -1.6974 H       1  LIG1          0.13
     59 H          10.9145    1.5391   -0.4070 H       1  LIG1       0.09999999999999998
     60 H           9.5291    0.4757   -0.6603 H       1  LIG1       0.10999999999999999
     61 H           9.5320    3.5116   -1.0445 H       1  LIG1       0.17000000000000004
     62 H           8.1341    2.4581   -1.3013 H       1  LIG1       0.18000000000000005
     63 H          -2.8364   -1.4366    3.1915 H       1  LIG1       0.18000000000000005
     64 H          -2.6027    0.3000    3.4854 H       1  LIG1       0.18000000000000005
     65 H           3.3791   -1.9007   -0.9201 H       1  LIG1       0.17000000000000004
     66 H           3.1971   -1.5077    0.7995 H       1  LIG1       0.17000000000000004
     67 H          -8.9492    4.2585   -1.2711 H       1  LIG1       0.16000000000000003
     68 H          -3.4964    1.1280    0.1369 H       1  LIG1       0.22999999999999998
     69 H          -4.9664   -0.4792    3.7214 H       1  LIG1       0.17000000000000004
     70 H          -6.9140   -0.3298    0.3801 H       1  LIG1       0.16000000000000003
     71 H          -4.6755   -1.1726    0.7770 H       1  LIG1       0.18000000000000005
     72 H           6.5199   -0.0488    0.0280 H       1  LIG1          0.13
     73 H          -6.7115    1.9188    2.0000 H       1  LIG1       0.18000000000000005
     74 H          -4.4441    3.6024   -3.8539 H       1  LIG1          0.37
     75 H          -5.8114    4.4099   -4.4933 H       1  LIG1          0.37
     76 H          -7.3268   -1.3282    2.6275 H       1  LIG1       0.43999999999999995
     77 H           5.5303   -2.4315    0.8225 H       1  LIG1           0.4
     78 H          -3.9387   -3.4769    0.4228 H       1  LIG1          0.47
     79 H           0.4636   -1.4347    2.0891 H       1  LIG1          0.48
     80 H           7.8972    1.6778    1.2025 H       1  LIG1           0.13
@<TRIPOS>BOND
     1    29    12    2
     2    75    22    1
     3    74    22    1
     4    22    17    1
     5    55     3    1
     6    57     4    1
     7    12     3    1
     8    12    23   am
     9     3     4    1
    10     3    56    1
    11    17    25   ar
    12    17    13   ar
    13     4    24    1
    14     4    58    1
    15    51     1    1
    16    25     9   ar
    17    23     5    1
    18    24    19   am
    19    50     1    1
    20    49     1    1
    21     1    21    1
    22    13    27   ar
    23    13    18   ar
    24    27    10   ar
    25     9    67    1
    26     9    26   ar
    27    62     6    1
    28    19    32    2
    29    19    16    1
    30    61     6    1
    31     5     6    1
    32     5    60    1
    33     5    59    1
    34    65     8    1
    35     6    48    1
    36    41     8    1
    37    41    47    1
    38    18    26   ar
    39    18    28   ar
    40    21     8    1
    41    21    16    1
    42    21     2    1
    43    10    68    1
    44    10    28   ar
    45     8    66    1
    46    33    45    2
    47    36    46    2
    48    16    72    1
    49    16    31    1
    50    44    47    1
    51    44    46    1
    52    28    20    1
    53    70    14    1
    54    78    35    1
    55    47    39    2
    56    47    38    1
    57    53     2    1
    58    54     2    1
    59     2    52    1
    60    71    15    1
    61    77    31    1
    62    35    45    1
    63    46    40    1
    64    46    37    1
    65    48    80    1
    66    45    34    1
    67    45    43    1
    68    14    20    1
    69    14    15    1
    70    14    30    1
    71    40     7    1
    72    20    73    1
    73    20    42    1
    74    15    43    1
    75    15    11    1
    76    38    79    1
    77    30    76    1
    78    42    11    1
    79    11     7    1
    80    11    69    1
    81     7    63    1
    82     7    64    1
