@<TRIPOS>MOLECULE
RGRKFKRAFZJQMS-OOHFSOINSA-M	6045172	-1005.2032991995335
 53 52 0 0 0
SMALL
MULLIKEN NwChem

@<TRIPOS>ATOM
      1 C           6.5810   -0.4127    5.9303 C.3     1  LIG1      -0.4500000000000002
      2 C           5.2559   -1.0403    5.4623 C.3     1  LIG1      -0.2999999999999998
      3 C           4.1270   -0.0438    5.4750 C.2     1  LIG1      -0.11000000000000032
      4 C          -2.2268    0.7919   -0.6455 C.3     1  LIG1      -0.2599999999999998
      5 C          -2.0554    1.5836   -1.9538 C.3     1  LIG1      -0.2699999999999996
      6 C          -1.0823   -0.2005   -0.3245 C.3     1  LIG1      -0.3200000000000003
      7 C          -1.8595    0.7300   -3.2166 C.3     1  LIG1      -0.28000000000000025
      8 C           0.2647    0.4687   -0.3145 C.2     1  LIG1      -0.09999999999999964
      9 C          -2.9826   -0.2810   -3.5028 C.3     1  LIG1      -0.2599999999999998
     10 C           3.3987    0.3844    4.4367 C.2     1  LIG1      -0.13999999999999968
     11 C           0.9720    0.8501    0.7614 C.2     1  LIG1      -0.20000000000000018
     12 C          -4.3920    0.3328   -3.6140 C.3     1  LIG1      -0.2699999999999996
     13 C           3.4983   -0.0751    3.0048 C.3     1  LIG1      -0.33999999999999986
     14 C           0.5838    0.6573    2.2128 C.3     1  LIG1      -0.3200000000000003
     15 C          -4.4858    1.5137   -4.5972 C.3     1  LIG1       -0.3200000000000003
     16 C           2.4392   -1.1347    2.6377 C.3     1  LIG1       0.11000000000000032
     17 C           0.9745   -0.6992    2.8581 C.3     1  LIG1       0.11000000000000032
     18 C          -3.9204    1.0925   -5.9996 C.2     1  LIG1       0.5099999999999998
     19 O           2.6161   -1.6093    1.2989 O.3     1  LIG1      -0.6899999999999995
     20 O           0.1233   -1.7492    2.4170 O.3     1  LIG1      -0.6699999999999999
     21 O          -4.6919    0.3775   -6.6854 O.co2   1  LIG1      -0.6899999999999995
     22 O          -2.7378    1.4605   -6.2434 O.co2   1  LIG1      -0.6799999999999997
     23 H           6.8884    0.3926    5.2532 H       1  LIG1       0.15000000000000002
     24 H           7.3852   -1.1572    5.9657 H       1  LIG1       0.15000000000000002
     25 H           6.4793    0.0196    6.9336 H       1  LIG1       0.15000000000000002
     26 H           5.3842   -1.4769    4.4659 H       1  LIG1       0.15000000000000002
     27 H           5.0019   -1.8753    6.1321 H       1  LIG1       0.15000000000000002
     28 H           3.9134    0.3852    6.4563 H       1  LIG1          0.13
     29 H          -3.1641    0.2224   -0.6814 H       1  LIG1          0.14
     30 H          -2.3186    1.4952    0.1952 H       1  LIG1          0.13
     31 H          -2.9401    2.2189   -2.0848 H       1  LIG1          0.14
     32 H          -1.2038    2.2724   -1.8481 H       1  LIG1          0.13
     33 H          -1.0776   -0.9879   -1.0892 H       1  LIG1       0.15000000000000002
     34 H          -1.2756   -0.6898    0.6350 H       1  LIG1          0.14
     35 H          -1.7849    1.3768   -4.0987 H       1  LIG1          0.14
     36 H          -0.9026    0.1879   -3.1472 H       1  LIG1          0.13
     37 H           0.6702    0.7134   -1.2960 H       1  LIG1       0.15000000000000002
     38 H          -2.7464   -0.7667   -4.4561 H       1  LIG1          0.12
     39 H          -2.9948   -1.0738   -2.7365 H       1  LIG1          0.13
     40 H           2.6198    1.1197    4.6381 H       1  LIG1       0.15000000000000002
     41 H           1.9103    1.3805    0.5866 H       1  LIG1       0.16000000000000003
     42 H          -5.0753   -0.4508   -3.9670 H       1  LIG1          0.12
     43 H          -4.7454    0.6336   -2.6131 H       1  LIG1          0.13
     44 H           3.3869    0.7866    2.3340 H       1  LIG1       0.16000000000000003
     45 H           4.4780   -0.5128    2.7881 H       1  LIG1       0.16000000000000003
     46 H          -0.5011    0.7466    2.3319 H       1  LIG1       0.16000000000000003
     47 H           1.0321    1.4649    2.8071 H       1  LIG1       0.16000000000000003
     48 H          -5.5417    1.8004   -4.6958 H       1  LIG1       0.10999999999999999
     49 H          -3.9311    2.3795   -4.2123 H       1  LIG1       0.10999999999999999
     50 H           2.6060   -2.0174    3.2659 H       1  LIG1       0.15000000000000002
     51 H           0.8053   -0.6069    3.9383 H       1  LIG1       0.15000000000000002
     52 H           2.3379   -0.8929    0.6974 H       1  LIG1       0.42000000000000004
     53 H           0.5378   -2.0898    1.6036 H       1  LIG1       0.42000000000000004
@<TRIPOS>BOND
     1    21    18   ar
     2    22    18   ar
     3    18    15    1
     4    48    15    1
     5    15    49    1
     6    15    12    1
     7    38     9    1
     8    35     7    1
     9    42    12    1
    10    12     9    1
    11    12    43    1
    12     9     7    1
    13     9    39    1
    14     7    36    1
    15     7     5    1
    16    31     5    1
    17     5    32    1
    18     5     4    1
    19    37     8    1
    20    33     6    1
    21    29     4    1
    22     4     6    1
    23     4    30    1
    24     6     8    1
    25     6    34    1
    26     8    11    2
    27    41    11    1
    28    52    19    1
    29    11    14    1
    30    19    16    1
    31    53    20    1
    32    14    46    1
    33    14    47    1
    34    14    17    1
    35    44    13    1
    36    20    17    1
    37    16    17    1
    38    16    13    1
    39    16    50    1
    40    45    13    1
    41    17    51    1
    42    13    10    1
    43    10    40    1
    44    10     3    2
    45    26     2    1
    46    23     1    1
    47     2     3    1
    48     2     1    1
    49     2    27    1
    50     3    28    1
    51     1    24    1
    52     1    25    1
