@<TRIPOS>MOLECULE
RGWHQCVHVJXOKC-SHYZEUOFSA-J	11085198	-2517.0586720017086
 40 41 0 0 0
SMALL
MULLIKEN NwChem

@<TRIPOS>ATOM
      1 C          -6.5418    1.4633   -0.8074 C.ar    1  LIG1            -0.25
      2 C          -5.3387    0.8663   -0.6497 C.ar    1  LIG1       0.05999999999999961
      3 C          -3.1222   -1.1362   -1.7944 C.3     1  LIG1       -0.3099999999999996
      4 C          -0.7646    0.4834    0.4829 C.3     1  LIG1       -0.04999999999999982
      5 C          -1.6339   -1.1035   -1.3898 C.3     1  LIG1       0.1200000000000001
      6 C          -1.6875   -0.6888    0.1116 C.3     1  LIG1       0.09999999999999964
      7 C          -7.7460    0.6333   -0.8572 C.ar    1  LIG1       0.41999999999999993
      8 C          -3.8917   -1.0996   -0.4607 C.3     1  LIG1       0.28000000000000025
      9 C          -6.4057   -1.3294   -0.6015 C.ar    1  LIG1       0.6500000000000004
     10 N          -8.9146    1.2258   -1.0066 N.pl3   1  LIG1      -0.8099999999999996
     11 N          -7.6067   -0.7325   -0.7481 N.ar    1  LIG1      -0.6699999999999999
     12 N          -5.2210   -0.4947   -0.5293 N.ar    1  LIG1         -0.5
     13 O          -1.0368   -2.3649   -1.5824 O.3     1  LIG1      -0.7400000000000002
     14 O          -6.2373   -2.5613   -0.5301 O.2     1  LIG1      -0.6600000000000001
     15 O           6.7123    1.1375   -0.5849 O.3     1  LIG1      -0.7699999999999996
     16 O           7.1040    2.1394    1.7841 O.3     1  LIG1      -0.7100000000000009
     17 O           7.6036   -0.3801    1.2912 O.2     1  LIG1      -0.6899999999999995
     18 O           1.1348   -1.1619    1.9338 O.3     1  LIG1      -0.6999999999999993
     19 O           1.3842   -2.0190   -0.5212 O.2     1  LIG1      -0.7100000000000009
     20 O           4.1557    1.9043   -0.5224 O.2     1  LIG1      -0.7100000000000009
     21 O           3.0146    1.8529    1.8467 O.3     1  LIG1      -0.6699999999999999
     22 O           0.5219    0.3520   -0.0778 O.3     1  LIG1      -0.6099999999999994
     23 O          -3.0609   -0.3247    0.4031 O.3     1  LIG1      -0.5600000000000005
     24 O           5.1564    0.4456    1.3341 O.3     1  LIG1      -0.6699999999999999
     25 O           2.9799   -0.2386    0.2690 O.3     1  LIG1      -0.6300000000000008
     26 P           6.7789    0.8614    1.0420 P.3     1  LIG1       1.0299999999999994
     27 P           1.5188   -0.8933    0.5047 P.3     1  LIG1       1.1300000000000008
     28 P           3.7895    1.1696    0.7623 P.3     1  LIG1       1.1199999999999992
     29 H          -6.6297    2.5430   -0.8816 H       1  LIG1          0.13
     30 H          -4.4012    1.4085   -0.5764 H       1  LIG1       0.18000000000000005
     31 H          -3.3576   -2.0275   -2.3827 H       1  LIG1       0.16000000000000003
     32 H          -3.3946   -0.2471   -2.3775 H       1  LIG1       0.16000000000000003
     33 H          -0.7139    0.5810    1.5747 H       1  LIG1       0.15000000000000002
     34 H          -1.2079    1.4009    0.0648 H       1  LIG1       0.16000000000000003
     35 H          -1.0932   -0.3270   -1.9529 H       1  LIG1          0.13
     36 H          -1.4162   -1.5712    0.7055 H       1  LIG1       0.15000000000000002
     37 H          -4.0397   -2.1104   -0.0691 H       1  LIG1       0.16000000000000003
     38 H          -9.5991    0.4551   -1.0124 H       1  LIG1          0.25
     39 H          -0.1015   -2.2853   -1.2001 H       1  LIG1       0.43999999999999995
     40 H           5.7938    1.5045   -0.7516 H       1  LIG1       0.44999999999999996
@<TRIPOS>BOND
     1    31     3    1
     2    32     3    1
     3    35     5    1
     4     3     5    1
     5     3     8    1
     6    13     5    1
     7    13    39    1
     8     5     6    1
     9    38    10    1
    10    10     7    1
    11    29     1    1
    12     7     1   ar
    13     7    11   ar
    14     1     2   ar
    15    40    15    1
    16    11     9   ar
    17     2    30    1
    18     2    12   ar
    19     9    14    2
    20     9    12   ar
    21    15    26    1
    22    12     8    1
    23    20    28    2
    24    19    27    2
    25     8    37    1
    26     8    23    1
    27    22     4    1
    28    22    27    1
    29    34     4    1
    30     6    23    1
    31     6     4    1
    32     6    36    1
    33    25    27    1
    34    25    28    1
    35     4    33    1
    36    27    18    1
    37    28    24    1
    38    28    21    1
    39    26    17    2
    40    26    24    1
    41    26    16    1
