@<TRIPOS>MOLECULE
RHGKLRLOHDJJDR-BYPYZUCNSA-N	6045174	-626.250027342656
 25 24 0 0 0
SMALL
MULLIKEN NwChem

@<TRIPOS>ATOM
      1 C           0.7022   -1.1093    1.0152 C.3     1  LIG1      -0.29000000000000004
      2 C           0.3615   -0.1035    2.1246 C.3     1  LIG1      -0.28000000000000025
      3 C           0.0004   -0.8576   -0.3225 C.3     1  LIG1       -0.1200000000000001
      4 CA          0.7793    1.3515    1.8594 C.3     1  LIG1       -0.040000000000000036
      5 C          -0.1532    2.0113    0.8446 C.2     1  LIG1       0.5899999999999999
      6 C          -0.3438   -2.0803   -2.4688 C.2     1  LIG1       0.6600000000000001
      7 N           0.7431    2.1013    3.1265 N.3     1  LIG1        -0.75
      8 N          -0.0394   -2.8335   -3.4588 N.2     1  LIG1        -0.75
      9 N           0.2471   -1.9814   -1.2274 N.pl3   1  LIG1      -0.6299999999999999
     10 OXT        -1.3622    2.0315    0.9404 O.2     1  LIG1      -0.5199999999999996
     11 O           0.5154    2.6412   -0.1540 O.3     1  LIG1      -0.5899999999999999
     12 O          -1.4211   -1.2571   -2.5700 O.2     1  LIG1      -0.6199999999999992
     13 H           0.4269   -2.1136    1.3609 H       1  LIG1       0.16000000000000003
     14 H           1.7918   -1.1191    0.8584 H       1  LIG1       0.16000000000000003
     15 H          -0.7181   -0.1190    2.3227 H       1  LIG1       0.15000000000000002
     16 H           0.8659   -0.4062    3.0483 H       1  LIG1       0.16000000000000003
     17 H          -1.0784   -0.7656   -0.1727 H       1  LIG1       0.17000000000000004
     18 H           0.3451    0.0866   -0.7680 H       1  LIG1       0.16000000000000003
     19 HA          1.8051    1.3851    1.4779 H       1  LIG1       0.17000000000000004
     20 H1          1.0613    3.0582    2.9745 H       1  LIG1       0.32999999999999996
     21 H2         -0.2278    2.1689    3.4342 H       1  LIG1       0.32999999999999996
     22 H           0.7771   -3.4125   -3.2634 H       1  LIG1       0.31000000000000005
     23 H           1.1813   -2.3672   -1.1884 H       1  LIG1          0.36
     24 H          -0.1626    3.0528   -0.7245 H       1  LIG1       0.44999999999999996
     25 H          -1.7908   -1.4504   -3.4494 H       1  LIG1       0.43999999999999995
@<TRIPOS>BOND
     1     8    22    1
     2     8     6    2
     3    25    12    1
     4    12     6    1
     5     6     9    1
     6     9    23    1
     7     9     3    1
     8    18     3    1
     9    24    11    1
    10     3    17    1
    11     3     1    1
    12    11     5    1
    13     5    10    2
    14     5     4    1
    15    14     1    1
    16     1    13    1
    17     1     2    1
    18    19     4    1
    19     4     2    1
    20     4     7    1
    21     2    15    1
    22     2    16    1
    23    20     7    1
    24     7    21    1
