@<TRIPOS>MOLECULE
RHKKZBWRNHGJEZ-ARQDHWQXSA-L	11085197	-1253.8125265078218
 27 27 0 0 0
SMALL
MULLIKEN NwChem

@<TRIPOS>ATOM
      1 C          -3.4029    0.7893    1.2089 C.3     1  LIG1       -0.04999999999999982
      2 C           0.2553    0.3826   -1.6434 C.3     1  LIG1       -0.08000000000000007
      3 C          -2.6649   -0.3322    0.4746 C.3     1  LIG1       0.1200000000000001
      4 C          -1.6482   -1.0995    1.3184 C.3     1  LIG1       0.09999999999999964
      5 C          -0.4180   -1.1747    0.4061 C.3     1  LIG1       0.11000000000000032
      6 C          -0.4873    0.2234   -0.2772 C.3     1  LIG1       0.46999999999999975
      7 O          -4.0703    1.6364    0.2734 O.3     1  LIG1      -0.6799999999999997
      8 O          -2.1154   -2.3934    1.7266 O.3     1  LIG1      -0.6899999999999995
      9 O           0.7012   -1.5508    1.1344 O.3     1  LIG1        -0.75
     10 O          -0.1876    1.2440    0.6228 O.3     1  LIG1      -0.7200000000000006
     11 O           2.2540    0.3681    0.6845 O.3     1  LIG1      -0.8100000000000005
     12 O           3.8740    1.4988   -1.0039 O.3     1  LIG1      -0.7200000000000006
     13 O           2.9418   -0.9268   -1.4443 O.2     1  LIG1      -0.7599999999999998
     14 O           1.4104    1.1635   -1.5870 O.3     1  LIG1      -0.6199999999999992
     15 O          -1.9115    0.2838   -0.5887 O.3     1  LIG1      -0.5700000000000003
     16 P           2.8001    0.4505   -0.8180 P.3     1  LIG1       1.0099999999999998
     17 H          -4.1623    0.3807    1.8904 H       1  LIG1       0.15000000000000002
     18 H          -2.6657    1.3592    1.7933 H       1  LIG1          0.14
     19 H          -0.4589    0.8858   -2.3167 H       1  LIG1          0.14
     20 H           0.4671   -0.6200   -2.0479 H       1  LIG1          0.13
     21 H          -3.3899   -1.0220    0.0189 H       1  LIG1       0.15000000000000002
     22 H          -1.3556   -0.5130    2.2003 H       1  LIG1          0.13
     23 H          -0.6518   -1.9191   -0.3838 H       1  LIG1       0.10999999999999999
     24 H          -3.3796    1.7547   -0.4085 H       1  LIG1       0.42000000000000004
     25 H          -1.2810   -2.8562    1.9228 H       1  LIG1       0.42000000000000004
     26 H           1.4623   -0.8388    0.9465 H       1  LIG1       0.43999999999999995
     27 H           0.8253    1.1341    0.7399 H       1  LIG1       0.43000000000000005
@<TRIPOS>BOND
     1    19     2    1
     2    20     2    1
     3     2    14    1
     4     2     6    1
     5    14    16    1
     6    13    16    2
     7    12    16    1
     8    16    11    1
     9    15     6    1
    10    15     3    1
    11    24     7    1
    12    23     5    1
    13     6     5    1
    14     6    10    1
    15    21     3    1
    16     7     1    1
    17     5     9    1
    18     5     4    1
    19     3     1    1
    20     3     4    1
    21    10    27    1
    22    26     9    1
    23     1    18    1
    24     1    17    1
    25     4     8    1
    26     4    22    1
    27     8    25    1
