@<TRIPOS>MOLECULE
RIPJWLIETNNYEK-WDSKDSINSA-M	6045176	-3164.584076622204
 48 48 0 0 0
SMALL
MULLIKEN NwChem

@<TRIPOS>ATOM
      1 C          -2.6218    3.2614    0.6180 C.3     1  UNK1      -0.2400000000000002
      2 C          -2.4090    2.2225   -0.4925 C.3     1  UNK1       -0.3899999999999997
      3 CA         -3.6042   -2.4508   -1.7138 C.3     2  GLY2       -0.2599999999999998
      4 C          -1.5702   -0.9689    0.0923 C.3     1  UNK1          -0.5
      5 C          -2.0712    2.8306    1.9809 C.3     1  UNK1       -0.05999999999999961
      6 C          -1.2222   -0.4534   -1.3279 C.3     1  UNK1       -0.04999999999999982
      7 C          -0.9207    1.8946   -0.7476 C.2     1  UNK1       0.5700000000000003
      8 C          -2.5342   -3.5385   -1.6232 C.2     2  GLY2       0.5899999999999999
      9 C           3.7212   -1.2938   -0.7877 C.ar    1  UNK1       -0.15000000000000036
     10 C           3.3487   -0.0076   -0.3806 C.ar    1  UNK1       -0.13999999999999968
     11 C           1.6405   -2.1339    0.0621 C.ar    1  UNK1       -0.16000000000000014
     12 C           2.8624   -2.3798   -0.5796 C.ar    1  UNK1       0.3899999999999997
     13 C           2.1080    0.2456    0.2486 C.ar    1  UNK1       0.3799999999999999
     14 C           1.2443   -0.8580    0.4875 C.ar    1  UNK1       -0.1299999999999999
     15 C          -2.4084   -0.4810   -2.3458 C.2     1  UNK1       0.5099999999999998
     16 C          -2.1090    3.9869    2.9675 C.2     1  UNK1       0.6100000000000003
     17 CL          5.2544   -1.6078   -1.5704 Cl      1  UNK1      0.010000000000001563
     18 CL          4.4083    1.3500   -0.6675 Cl      1  UNK1      -0.010000000000001563
     19 CL          0.5982   -3.5503    0.3068 Cl      1  UNK1      -0.010000000000001563
     20 N          -2.8554    1.7158    2.5573 N.3     1  UNK1        -0.79
     21 N          -3.3683   -1.2995   -2.5457 N.2     2  GLY2      -0.5099999999999998
     22 N          -0.4823    0.7926   -1.3487 N.am    1  UNK1      -0.6399999999999997
     23 O          -0.0999    2.7995   -0.4005 O.2     1  UNK1      -0.6600000000000001
     24 OXT        -2.6006   -4.4804   -0.8588 O.2     2  GLY2      -0.5199999999999996
     25 O          -1.5000   -3.3672   -2.4758 O.3     2  GLY2      -0.5700000000000003
     26 O           3.2585   -3.6155   -0.9979 O.3     1  UNK1      -0.6500000000000004
     27 O           1.8381    1.4829    0.6631 O.3     1  UNK1      -0.7200000000000006
     28 O          -2.2913    0.5346   -3.2251 O.2     1  UNK1      -0.6300000000000008
     29 O          -2.3868    5.1433    2.7358 O.2     1  UNK1      -0.5199999999999996
     30 O          -1.7446    3.5809    4.2183 O.3     1  UNK1      -0.5999999999999996
     31 S          -0.2837   -0.5700    1.3662 S.3     1  UNK1      0.08999999999999986
     32 H          -3.6904    3.4860    0.7250 H       1  UNK1          0.14
     33 H          -2.1119    4.1834    0.3327 H       1  UNK1       0.15000000000000002
     34 H          -2.9951    1.3155   -0.3107 H       1  UNK1       0.16000000000000003
     35 H          -2.8130    2.6209   -1.4330 H       1  UNK1       0.18000000000000005
     36 HA1        -3.8557   -2.2088   -0.6716 H       2  GLY2       0.20999999999999996
     37 HA2        -4.4913   -2.9739   -2.1000 H       2  GLY2       0.19999999999999996
     38 H          -2.4780   -0.5044    0.4872 H       1  UNK1       0.21999999999999997
     39 H          -1.7263   -2.0460    0.1028 H       1  UNK1       0.20999999999999996
     40 H          -1.0058    2.5817    1.8512 H       1  UNK1       0.18000000000000005
     41 H          -0.5316   -1.2025   -1.7408 H       1  UNK1       0.18999999999999995
     42 H          -2.3812    1.3893    3.3983 H       1  UNK1       0.33999999999999997
     43 H          -2.8077    0.9363    1.9054 H       1  UNK1       0.33999999999999997
     44 H          -0.8599   -4.0710   -2.2588 H       2  GLY2       0.44999999999999996
     45 H           2.5712   -4.2500   -0.7327 H       1  UNK1       0.44999999999999996
     46 H           1.0937    1.9655    0.1281 H       1  UNK1       0.45999999999999996
     47 H          -1.4827    1.0213   -2.9167 H       1  UNK1       0.42000000000000004
     48 H          -1.7845    4.3812    4.7735 H       1  UNK1       0.43999999999999995
@<TRIPOS>BOND
     1    28    47    1
     2    28    15    1
     3    21    15    2
     4    21     3    1
     5    25    44    1
     6    25     8    1
     7    15     6    1
     8    37     3    1
     9    41     6    1
    10     3     8    1
    11     3    36    1
    12     8    24    2
    13    17     9    1
    14    35     2    1
    15    22     6    1
    16    22     7   am
    17     6     4    1
    18    26    45    1
    19    26    12    1
    20     9    12   ar
    21     9    10   ar
    22     7     2    1
    23     7    23    2
    24    18    10    1
    25    12    11   ar
    26     2    34    1
    27     2     1    1
    28    10    13   ar
    29    11    19    1
    30    11    14   ar
    31     4    39    1
    32     4    38    1
    33     4    31    1
    34    46    27    1
    35    13    14   ar
    36    13    27    1
    37    33     1    1
    38    14    31    1
    39     1    32    1
    40     1     5    1
    41    40     5    1
    42    43    20    1
    43     5    20    1
    44     5    16    1
    45    20    42    1
    46    29    16    2
    47    16    30    1
    48    30    48    1
