@<TRIPOS>MOLECULE
RITKHVBHSGLULN-WHFBIAKZSA-M	11085196	-1196.4636287076476
 29 28 0 0 0
SMALL
MULLIKEN NwChem

@<TRIPOS>ATOM
      1 CB          1.5313   -0.2523   -0.6592 C.3     1  CYS1      -0.29000000000000004
      2 CG          0.2816    0.6542   -0.6202 C.3     1  CYS1       -0.3600000000000003
      3 CB         -3.0352    0.6900   -0.8374 C.3     1  CYS1       -0.41000000000000014
      4 CA          2.6465    0.1194    0.3611 C.3     1  CYS1       -0.040000000000000036
      5 CA         -2.4167   -0.3011    0.1678 C.3     1  CYS1       -0.08999999999999986
      6 CD         -0.3415    0.8024    0.7990 C.2     1  CYS1       0.5199999999999996
      7 C           3.8566   -0.7212    0.0079 C.2     1  CYS1       0.5999999999999996
      8 C          -1.8796   -1.5637   -0.5362 C.2     1  CYS1       0.6100000000000003
      9 N           3.0304    1.5268    0.4158 N.3     1  CYS1        -0.79
     10 N          -1.5157    0.2536    1.1652 N.am    1  CYS1      -0.6500000000000004
     11 OE1         0.3708    1.4395    1.6117 O.2     1  CYS1      -0.6400000000000006
     12 O           4.7340   -0.4169   -0.7742 O.2     1  CYS1      -0.5299999999999994
     13 OXT         3.8371   -1.9408    0.6169 O.3     1  CYS1      -0.5899999999999999
     14 O          -2.2281   -1.9867   -1.6189 O.2     1  CYS1      -0.5399999999999991
     15 OXT        -0.9981   -2.2272    0.2446 O.3     1  CYS1      -0.6099999999999994
     16 SG         -3.8901    2.0590    0.0654 S.3     1  CYS1      -0.19000000000000128
     17 HB1         1.2309   -1.2942   -0.4967 H       1  CYS1       0.15000000000000002
     18 HB2         1.9612   -0.1973   -1.6709 H       1  CYS1       0.15000000000000002
     19 HG1         0.5625    1.6644   -0.9416 H       1  CYS1       0.15000000000000002
     20 HG2        -0.4107    0.2663   -1.3736 H       1  CYS1          0.14
     21 HB1        -3.7755    0.1831   -1.4619 H       1  CYS1       0.18999999999999995
     22 HB2        -2.2754    1.1202   -1.4934 H       1  CYS1       0.19999999999999996
     23 HA          2.2993   -0.1559    1.3591 H       1  CYS1       0.16000000000000003
     24 HA         -3.2736   -0.6978    0.7411 H       1  CYS1       0.18999999999999995
     25 H1          3.1912    1.8655   -0.5327 H       1  CYS1       0.31000000000000005
     26 H2          2.2024    1.9967    0.7933 H       1  CYS1       0.32999999999999996
     27 HXT         4.6101   -2.4182    0.2614 H       1  CYS1       0.43999999999999995
     28 HXT        -0.8607   -1.6079    1.0104 H       1  CYS1       0.43000000000000005
     29 HG         -3.0041    2.0083    1.0954 H       1  CYS1           0.13
@<TRIPOS>BOND
     1    18     1    1
     2    14     8    2
     3    22     3    1
     4    21     3    1
     5    20     2    1
     6    19     2    1
     7     3    16    1
     8     3     5    1
     9    12     7    2
    10     1     2    1
    11     1    17    1
    12     1     4    1
    13     2     6    1
    14     8     5    1
    15     8    15    1
    16    25     9    1
    17     7     4    1
    18     7    13    1
    19    16    29    1
    20     5    24    1
    21     5    10    1
    22    15    28    1
    23    27    13    1
    24     4     9    1
    25     4    23    1
    26     9    26    1
    27     6    10   am
    28     6    11    2
