@<TRIPOS>MOLECULE
RJFAYQIBOAGBLC-BYPYZUCNSA-N	6045178	-2803.471435663497
 20 19 0 0 0
SMALL
MULLIKEN NwChem

@<TRIPOS>ATOM
      1 C          -0.1927    0.1615    2.6521 C.3     1  LIG1       -0.5599999999999996
      2 C          -0.7792   -0.6798   -1.2584 C.3     1  LIG1       -0.2699999999999996
      3 C          -0.5592   -1.3781    0.0860 C.3     1  LIG1       -0.3700000000000001
      4 CA         -0.2943    0.7834   -1.3572 C.3     1  LIG1       -0.05999999999999961
      5 C           1.2326    0.8229   -1.2972 C.2     1  LIG1       0.5800000000000001
      6 N          -0.8083    1.3738   -2.5912 N.3     1  LIG1         -0.75
      7 O           1.9625    0.7947   -2.2642 O.2     1  LIG1       -0.5199999999999996
      8 OXT         1.7138    0.8670   -0.0263 O.3     1  LIG1       -0.5700000000000003
      9 SE         -1.6559   -0.6286    1.5793 Se      1  LIG1       -0.07000000000000028
     10 H          -0.6660    0.6741    3.4929 H       1  LIG1       0.18999999999999995
     11 H           0.3765    0.8702    2.0512 H       1  LIG1       0.19999999999999996
     12 H           0.4622   -0.6261    3.0304 H       1  LIG1       0.18999999999999995
     13 H          -0.2789   -1.2649   -2.0455 H       1  LIG1       0.16000000000000003
     14 H          -1.8454   -0.6641   -1.5072 H       1  LIG1       0.17000000000000004
     15 H           0.4832   -1.3313    0.4106 H       1  LIG1       0.18999999999999995
     16 H          -0.8376   -2.4316    0.0042 H       1  LIG1       0.18999999999999995
     17 HA         -0.6977    1.3375   -0.5033 H       1  LIG1       0.18999999999999995
     18 H1         -0.5875    2.3688   -2.6087 H       1  LIG1       0.32999999999999996
     19 H2         -0.2938    0.9716   -3.3758 H       1  LIG1       0.31999999999999995
     20 HXT         2.6879    0.8569   -0.0974 H       1  LIG1       0.43999999999999995
@<TRIPOS>BOND
     1    19     6    1
     2    18     6    1
     3     6     4    1
     4     7     5    2
     5    13     2    1
     6    14     2    1
     7     4     5    1
     8     4     2    1
     9     4    17    1
    10     5     8    1
    11     2     3    1
    12    20     8    1
    13    16     3    1
    14     3    15    1
    15     3     9    1
    16     9     1    1
    17    11     1    1
    18     1    12    1
    19     1    10    1
