@<TRIPOS>MOLECULE
RJKFOVLPORLFTN-LEKSSAKUSA-N	6045179	-968.3705486404075
 53 56 0 0 0
SMALL
MULLIKEN NwChem

@<TRIPOS>ATOM
      1 C           1.7178   -5.5444   -1.8313 C.3     1  LIG1            -0.54
      2 C          -1.9057    2.7809   -0.7643 C.3     1  LIG1      -0.4800000000000004
      3 C           1.4319   -1.1764   -2.0919 C.3     1  LIG1         -0.5
      4 C           1.2541    2.6668    0.2254 C.3     1  LIG1      -0.3600000000000003
      5 C           1.7849    1.2114    0.3964 C.3     1  LIG1      -0.28000000000000025
      6 C           2.3499   -3.2035    0.0212 C.3     1  LIG1      -0.2999999999999998
      7 C           2.2942   -1.8360    0.7688 C.3     1  LIG1      -0.2999999999999998
      8 C          -2.6480    2.9452    2.2804 C.3     1  LIG1       -0.3799999999999999
      9 C          -1.5813   -0.4893   -0.4354 C.3     1  LIG1      -0.29000000000000004
     10 C          -2.2272    1.6901    1.5055 C.3     1  LIG1      -0.2999999999999998
     11 C          -0.9396   -1.6232   -1.2782 C.3     1  LIG1      -0.2999999999999998
     12 C          -0.2068    3.6295    2.0097 C.2     1  LIG1      -0.28000000000000025
     13 C           0.9976   -4.2137   -1.9777 C.2     1  LIG1       0.46999999999999975
     14 C          -0.0666    2.8325    0.9317 C.2     1  LIG1      0.1900000000000004
     15 C          -1.4593    3.7618    2.7732 C.2     1  LIG1       0.45999999999999996
     16 C           0.6158    0.2339    0.6343 C.3     1  LIG1      -0.11000000000000032
     17 C           1.0071   -3.2957   -0.7645 C.3     1  LIG1       -0.20999999999999996
     18 C           0.9011   -1.2680    0.4336 C.3     1  LIG1      -0.11000000000000032
     19 C          -0.6031    0.6761   -0.2203 C.3     1  LIG1      -0.1200000000000001
     20 C          -1.2176    1.9887    0.3739 C.3     1  LIG1      0.03000000000000025
     21 C           0.5737   -1.8215   -0.9790 C.3     1  LIG1      0.1200000000000001
     22 O           0.4041   -3.9284   -3.0033 O.2     1  LIG1      -0.5099999999999998
     23 O          -1.5453    4.4992    3.7460 O.2     1  LIG1      -0.5600000000000005
     24 H           2.8023   -5.3821   -1.7951 H       1  LIG1       0.19999999999999996
     25 H           1.4785   -6.1874   -2.6807 H       1  LIG1       0.17000000000000004
     26 H           1.4403   -6.0398   -0.8929 H       1  LIG1       0.18999999999999995
     27 H          -1.1865    3.0528   -1.5448 H       1  LIG1       0.16000000000000003
     28 H          -2.6912    2.1746   -1.2299 H       1  LIG1       0.16000000000000003
     29 H          -2.3603    3.7064   -0.3990 H       1  LIG1       0.16000000000000003
     30 H           2.5062   -1.2568   -1.8918 H       1  LIG1       0.15000000000000002
     31 H           1.2277   -1.6692   -3.0448 H       1  LIG1       0.15000000000000002
     32 H           1.2014   -0.1152   -2.2107 H       1  LIG1       0.16000000000000003
     33 H           1.1104    2.8707   -0.8443 H       1  LIG1       0.17000000000000004
     34 H           1.9865    3.3944    0.5885 H       1  LIG1       0.16000000000000003
     35 H           2.3601    0.9316   -0.4919 H       1  LIG1       0.15000000000000002
     36 H           2.4746    1.1693    1.2469 H       1  LIG1       0.15000000000000002
     37 H           3.2021   -3.2304   -0.6668 H       1  LIG1       0.16000000000000003
     38 H           2.4731   -4.0491    0.7046 H       1  LIG1       0.15000000000000002
     39 H           3.0885   -1.1740    0.4108 H       1  LIG1       0.15000000000000002
     40 H           2.4398   -1.9460    1.8486 H       1  LIG1          0.14
     41 H          -3.2700    2.6971    3.1462 H       1  LIG1       0.16000000000000003
     42 H          -3.2543    3.6066    1.6459 H       1  LIG1       0.18999999999999995
     43 H          -2.4944   -0.1433   -0.9344 H       1  LIG1          0.14
     44 H          -1.8986   -0.8822    0.5387 H       1  LIG1          0.14
     45 H          -3.1125    1.1944    1.0918 H       1  LIG1       0.15000000000000002
     46 H          -1.7700    0.9819    2.2088 H       1  LIG1       0.16000000000000003
     47 H          -1.0685   -1.4092   -2.3442 H       1  LIG1          0.14
     48 H          -1.4876   -2.5552   -1.0956 H       1  LIG1          0.13
     49 H           0.6286    4.2187    2.3824 H       1  LIG1          0.14
     50 H           0.3270    0.3557    1.6884 H       1  LIG1          0.13
     51 H           0.2674   -3.7559   -0.0866 H       1  LIG1       0.17000000000000004
     52 H           0.1976   -1.7879    1.1016 H       1  LIG1          0.13
     53 H          -0.2265    0.9433   -1.2165 H       1  LIG1           0.14
@<TRIPOS>BOND
     1    31     3    1
     2    22    13    2
     3    25     1    1
     4    47    11    1
     5    32     3    1
     6     3    30    1
     7     3    21    1
     8    13     1    1
     9    13    17    1
    10     1    24    1
    11     1    26    1
    12    27     2    1
    13    11    48    1
    14    11    21    1
    15    11     9    1
    16    28     2    1
    17    53    19    1
    18    21    17    1
    19    21    18    1
    20    43     9    1
    21    33     4    1
    22    17    51    1
    23    17     6    1
    24     2    29    1
    25     2    20    1
    26    37     6    1
    27    35     5    1
    28     9    19    1
    29     9    44    1
    30    19    20    1
    31    19    16    1
    32     6    38    1
    33     6     7    1
    34     4     5    1
    35     4    34    1
    36     4    14    1
    37    20    14    1
    38    20    10    1
    39     5    16    1
    40     5    36    1
    41    39     7    1
    42    18    16    1
    43    18     7    1
    44    18    52    1
    45    16    50    1
    46     7    40    1
    47    14    12    2
    48    45    10    1
    49    10    46    1
    50    10     8    1
    51    42     8    1
    52    12    49    1
    53    12    15    1
    54     8    15    1
    55     8    41    1
    56    15    23    2
