@<TRIPOS>MOLECULE
RKNHJBVBFHDXGR-KEOHHSTQSA-I	11085194	-3727.993076899184
 64 67 0 0 0
SMALL
MULLIKEN NwChem

@<TRIPOS>ATOM
      1 C          -8.3157    2.1360    0.0121 C.3     1  LIG1       -0.07000000000000028
      2 C           3.6485    0.5320   -2.0344 C.3     1  LIG1       -0.05999999999999961
      3 C          -0.3684   -1.5867   -1.7815 C.2     1  LIG1       0.20999999999999996
      4 C          -3.7529    0.1434    0.3609 C.2     1  LIG1          0.25
      5 C          -7.7591    0.7118    0.0105 C.3     1  LIG1       0.1200000000000001
      6 C           2.7958    0.7331   -0.7843 C.3     1  LIG1       0.13999999999999968
      7 C          -2.4514   -1.3962   -1.4054 C.2     1  LIG1       0.1299999999999999
      8 C          -7.6524   -0.0117    1.3770 C.3     1  LIG1       0.15000000000000036
      9 C           3.0746   -0.2961    0.3303 C.3     1  LIG1       0.040000000000000036
     10 C          -6.5353   -1.1071    1.0529 C.3     1  LIG1       0.08000000000000007
     11 C           1.6864   -0.9777    0.5737 C.3     1  LIG1       0.09999999999999964
     12 C          -3.8928   -1.5031   -1.4461 C.2     1  LIG1       0.5199999999999996
     13 C          -1.8247   -0.5516   -0.5007 C.3     1  LIG1       0.5099999999999998
     14 C          -5.9664   -0.6466   -0.3181 C.3     1  LIG1       0.2599999999999998
     15 C           0.6804   -0.0212   -0.1227 C.3     1  LIG1       0.2599999999999998
     16 N          -4.6139   -2.2257   -2.2369 N.pl3   1  LIG1        -0.75
     17 N          -1.5309   -2.0384   -2.2090 N.2     1  LIG1      -0.5800000000000001
     18 N          -2.4497    0.2564    0.4088 N.2     1  LIG1      -0.5599999999999996
     19 N          -4.4940   -0.6693   -0.4588 N.pl3   1  LIG1      -0.5199999999999996
     20 N          -0.4701   -0.6904   -0.7417 N.pl3   1  LIG1         -0.5
     21 O          -8.7876   -0.6176    1.8092 O.3     1  LIG1      -0.7799999999999994
     22 O           3.4776    0.3118    1.5395 O.3     1  LIG1      -0.7400000000000002
     23 O          -7.1980   -2.3421    0.9931 O.3     1  LIG1      -0.7200000000000006
     24 O           1.4389   -1.1437    1.9471 O.3     1  LIG1      -0.6999999999999993
     25 O         -10.0819    1.6369    2.4642 O.3     1  LIG1      -0.7799999999999994
     26 O         -10.2277    4.0392    1.6271 O.3     1  LIG1      -0.7300000000000004
     27 O         -12.0689    2.3090    0.8992 O.2     1  LIG1      -0.7100000000000009
     28 O           9.4125    1.7021    2.6257 O.3     1  LIG1      -0.7699999999999996
     29 O          10.9321    0.5032    0.8853 O.2     1  LIG1      -0.6999999999999993
     30 O          10.3417   -0.6291    3.1685 O.3     1  LIG1      -0.6899999999999995
     31 O           5.3819   -1.7551   -1.5250 O.3     1  LIG1      -0.7100000000000009
     32 O           6.7642   -0.3426   -3.2451 O.2     1  LIG1      -0.6699999999999999
     33 O           7.3061    1.8962    0.9820 O.2     1  LIG1      -0.7100000000000009
     34 O           5.9606   -0.2886    1.5022 O.3     1  LIG1      -0.6999999999999993
     35 O          -9.7311    2.0907   -0.0398 O.3     1  LIG1      -0.5999999999999996
     36 O           4.9938    0.7911   -1.7106 O.3     1  LIG1      -0.6099999999999994
     37 O          -6.4093    0.6949   -0.5215 O.3     1  LIG1      -0.5500000000000007
     38 O           1.3942    0.6076   -1.1663 O.3     1  LIG1      -0.5399999999999991
     39 O           8.5044   -0.3500    1.3658 O.3     1  LIG1      -0.6600000000000001
     40 O           7.1981    0.0017   -0.7677 O.3     1  LIG1      -0.6300000000000008
     41 P         -10.6435    2.6262    1.2852 P.3     1  LIG1       1.0099999999999998
     42 P           9.9620    0.2698    2.0172 P.3     1  LIG1       1.0299999999999994
     43 P           6.1076   -0.4844   -1.8982 P.3     1  LIG1       1.1400000000000006
     44 P           7.1528    0.3925    0.8417 P.3     1  LIG1       1.1400000000000006
     45 H          -7.9424    2.6568   -0.8864 H       1  LIG1       0.15000000000000002
     46 H          -7.9604    2.6960    0.8878 H       1  LIG1       0.15000000000000002
     47 H           3.3065    1.2251   -2.8225 H       1  LIG1       0.15000000000000002
     48 H           3.5044   -0.4951   -2.3946 H       1  LIG1       0.16000000000000003
     49 H           0.5991   -1.8398   -2.1916 H       1  LIG1       0.20999999999999996
     50 H          -4.3577    0.7609    1.0173 H       1  LIG1       0.19999999999999996
     51 H          -8.4090    0.0993   -0.6357 H       1  LIG1          0.12
     52 H           2.9686    1.7349   -0.3710 H       1  LIG1       0.15000000000000002
     53 H          -7.2153    0.7241    2.0927 H       1  LIG1       0.06999999999999995
     54 H           3.8285   -1.0184   -0.0022 H       1  LIG1       0.18000000000000005
     55 H          -5.7307   -1.1280    1.8094 H       1  LIG1          0.13
     56 H           1.6447   -1.9525    0.0674 H       1  LIG1       0.16000000000000003
     57 H          -6.3498   -1.3120   -1.0958 H       1  LIG1       0.17000000000000004
     58 H           0.2727    0.6856    0.6123 H       1  LIG1       0.17000000000000004
     59 H          -3.9599   -2.7246   -2.8462 H       1  LIG1       0.31000000000000005
     60 H          -9.7494    0.7388    2.1446 H       1  LIG1       0.43000000000000005
     61 H           4.4956    0.1610    1.5905 H       1  LIG1          0.47
     62 H          -8.1064   -2.0179    1.3404 H       1  LIG1          0.39
     63 H           2.1963   -0.6293    2.3313 H       1  LIG1       0.43000000000000005
     64 H           8.6600    1.9927    2.0359 H       1  LIG1       0.44999999999999996
@<TRIPOS>BOND
     1    32    43    2
     2    59    16    1
     3    47     2    1
     4    48     2    1
     5    16    12    1
     6    17     3    2
     7    17     7    1
     8    49     3    1
     9     2    36    1
    10     2     6    1
    11    43    36    1
    12    43    31    1
    13    43    40    1
    14     3    20    1
    15    12     7    2
    16    12    19    1
    17     7    13    1
    18    38     6    1
    19    38    15    1
    20    57    14    1
    21    45     1    1
    22     6    52    1
    23     6     9    1
    24    40    44    1
    25    20    13    1
    26    20    15    1
    27    51     5    1
    28    37    14    1
    29    37     5    1
    30    13    18    1
    31    19    14    1
    32    19     4    1
    33    14    10    1
    34    15    11    1
    35    15    58    1
    36    35     1    1
    37    35    41    1
    38    54     9    1
    39     5     1    1
    40     5     8    1
    41     1    46    1
    42    56    11    1
    43     9    11    1
    44     9    22    1
    45     4    18    2
    46     4    50    1
    47    11    24    1
    48    44    33    2
    49    44    39    1
    50    44    34    1
    51    29    42    2
    52    27    41    2
    53    23    10    1
    54    23    62    1
    55    10     8    1
    56    10    55    1
    57    41    26    1
    58    41    25    1
    59    39    42    1
    60     8    21    1
    61     8    53    1
    62    22    61    1
    63    24    63    1
    64    42    28    1
    65    42    30    1
    66    64    28    1
    67    60    25    1
