@<TRIPOS>MOLECULE
RLBIQVVOMOPOHC-UHFFFAOYSA-N	6045183	-1481.098457005332
 26 26 0 0 0
SMALL
MULLIKEN NwChem

@<TRIPOS>ATOM
      1 C           2.6061    1.0150   -0.1431 C.3     1  LIG1       -0.2400000000000002
      2 C           3.2086   -2.2693    2.6431 C.3     1  LIG1       -0.2400000000000002
      3 C          -2.4494    0.1257   -1.1958 C.ar    1  LIG1      -0.16000000000000014
      4 C          -1.6628    2.1409   -0.0629 C.ar    1  LIG1      -0.16000000000000014
      5 C          -1.6361   -0.6518   -0.3774 C.ar    1  LIG1      -0.16000000000000014
      6 C          -0.8525    1.3611    0.7561 C.ar    1  LIG1      -0.16000000000000014
      7 C          -2.4489    1.5104   -1.0276 C.ar    1  LIG1       0.2999999999999998
      8 C          -0.8471   -0.0263    0.5893 C.ar    1  LIG1       0.33999999999999986
      9 N          -3.3052    2.3345   -1.8960 N.pl3   1  LIG1       0.3899999999999997
     10 O          -3.2648    3.5558   -1.7453 O.2     1  LIG1      -0.4299999999999997
     11 O          -4.0093    1.7542   -2.7217 O.2     1  LIG1      -0.4299999999999997
     12 O           2.2056    0.3162    1.0542 O.3     1  LIG1      -0.5199999999999996
     13 O           1.8827   -1.7347    2.4545 O.3     1  LIG1      -0.4900000000000002
     14 O          -0.0692   -0.8026    1.4360 O.3     1  LIG1      -0.5700000000000003
     15 P           1.4799   -1.1297    1.0286 P.3     1  LIG1           1.0
     16 S           1.7575   -2.1938   -0.5650 S.3     1  LIG1       -0.46000000000000085
     17 H           3.2554    1.8255    0.1918 H       1  LIG1       0.19999999999999996
     18 H           1.7295    1.4259   -0.6523 H       1  LIG1       0.18999999999999995
     19 H           3.1475    0.3485   -0.8193 H       1  LIG1       0.18999999999999995
     20 H           3.4150   -3.0537    1.9085 H       1  LIG1       0.18999999999999995
     21 H           3.9532   -1.4707    2.5623 H       1  LIG1       0.18999999999999995
     22 H           3.2188   -2.6866    3.6505 H       1  LIG1       0.20999999999999996
     23 H          -3.0752   -0.3203   -1.9585 H       1  LIG1       0.19999999999999996
     24 H          -1.6974    3.2188    0.0343 H       1  LIG1       0.19999999999999996
     25 H          -1.5952   -1.7299   -0.4784 H       1  LIG1       0.18999999999999995
     26 H          -0.2263    1.8046    1.5220 H       1  LIG1       0.19999999999999996
@<TRIPOS>BOND
     1    11     9    2
     2    23     3    1
     3     9    10    2
     4     9     7    1
     5     3     7   ar
     6     3     5   ar
     7     7     4   ar
     8    19     1    1
     9    18     1    1
    10    16    15    1
    11    25     5    1
    12     5     8   ar
    13     1    17    1
    14     1    12    1
    15     4    24    1
    16     4     6   ar
    17     8     6   ar
    18     8    14    1
    19     6    26    1
    20    15    12    1
    21    15    14    1
    22    15    13    1
    23    20     2    1
    24    13     2    1
    25    21     2    1
    26     2    22    1
