@<TRIPOS>MOLECULE
RMPMZCPVBQOHTK-HIFPTAJRSA-M	11085193	-1376.8390545485483
 45 44 0 0 0
SMALL
MULLIKEN NwChem

@<TRIPOS>ATOM
      1 C           5.8063    3.3750   -1.5293 C.3     1  UNK1      -0.4500000000000002
      2 C          -3.2886   -2.3560   -0.6106 C.3     0  UNK0       -0.5499999999999998
      3 C           4.4278    2.7805   -1.8364 C.3     1  UNK1        -0.25
      4 C           4.0000    1.7009   -0.8354 C.3     1  UNK1        -0.25
      5 C           2.6248    1.0993   -1.1406 C.3     1  UNK1      -0.2599999999999998
      6 C           2.1987    0.0185   -0.1416 C.3     1  UNK1      -0.29000000000000004
      7 C           1.2532   -2.6697    1.0040 C.3     1  UNK1       -0.3700000000000001
      8 C           2.3961   -2.2630    1.9121 C.2     1  UNK1       0.2699999999999996
      9 C          -1.5305    0.6128    1.4018 C.3     1  UNK1       -0.4299999999999997
     10 C          -2.3291   -1.3701   -1.3081 C.2     0  UNK0       0.5199999999999996
     11 C          -2.6823    0.2976    0.4153 C.3     1  UNK1       -0.040000000000000036
     12 C           0.8588   -0.6093   -0.5168 C.3     1  UNK1       0.15000000000000036
     13 C           0.2668   -1.5845    0.5357 C.3     1  UNK1       -0.2699999999999996
     14 C          -3.4410    1.6360    0.2101 C.2     1  UNK1       0.5899999999999999
     15 N          -2.1751   -0.1260   -0.8646 N.am    1  UNK1      -0.5999999999999996
     16 O           3.4565   -2.8561    1.9604 O.2     1  UNK1      -0.47000000000000064
     17 O          -1.6745   -1.8315   -2.2830 O.2     0  UNK0      -0.6699999999999999
     18 O           1.0232   -1.3275   -1.7342 O.3     1  UNK1      -0.7200000000000006
     19 O          -4.0384    2.2229    1.0928 O.2     1  UNK1      -0.5500000000000007
     20 O          -3.3272    2.0880   -1.0412 O.3     1  UNK1      -0.6099999999999994
     21 S          -0.5331   -0.8046    2.0303 S.3     1  UNK1      0.009999999999999787
     22 H           6.5812    2.5977   -1.5419 H       1  UNK1       0.15000000000000002
     23 H           5.8222    3.8373   -0.5340 H       1  UNK1          0.14
     24 H           6.0906    4.1429   -2.2594 H       1  UNK1          0.14
     25 H          -4.2783   -1.9216   -0.4237 H       0  UNK0       0.17000000000000004
     26 H          -2.8819   -2.6697    0.3596 H       0  UNK0       0.18000000000000005
     27 H          -3.3921   -3.2377   -1.2468 H       0  UNK0       0.15000000000000002
     28 H           4.4285    2.3524   -2.8490 H       1  UNK1          0.13
     29 H           3.6754    3.5821   -1.8469 H       1  UNK1          0.13
     30 H           3.9983    2.1287    0.1793 H       1  UNK1          0.13
     31 H           4.7543    0.8995   -0.8236 H       1  UNK1          0.13
     32 H           2.6198    0.6580   -2.1446 H       1  UNK1          0.13
     33 H           1.8699    1.8998   -1.1506 H       1  UNK1          0.13
     34 H           2.1259    0.4467    0.8682 H       1  UNK1       0.15000000000000002
     35 H           2.9714   -0.7621   -0.1123 H       1  UNK1          0.14
     36 H           1.6748   -3.1478    0.1130 H       1  UNK1       0.18000000000000005
     37 H           0.6978   -3.4471    1.5529 H       1  UNK1       0.20999999999999996
     38 H           2.2034   -1.3974    2.5805 H       1  UNK1       0.15000000000000002
     39 H          -1.9445    1.0590    2.3127 H       1  UNK1       0.18999999999999995
     40 H          -0.8599    1.3474    0.9447 H       1  UNK1       0.18999999999999995
     41 H          -3.3813   -0.3866    0.9183 H       1  UNK1       0.16000000000000003
     42 H           0.1189    0.1818   -0.6707 H       1  UNK1       0.15000000000000002
     43 H          -0.5205   -2.1181    0.0074 H       1  UNK1       0.18999999999999995
     44 H           0.1078   -1.4474   -2.0992 H       1  UNK1       0.42000000000000004
     45 H          -2.7676    1.3515   -1.4692 H       1  UNK1       0.42000000000000004
@<TRIPOS>BOND
     1    28     3    1
     2    17    10    2
     3    24     1    1
     4    32     5    1
     5    44    18    1
     6    29     3    1
     7     3     1    1
     8     3     4    1
     9    18    12    1
    10    22     1    1
    11     1    23    1
    12    45    20    1
    13    10    15   am
    14    10     2    1
    15    27     2    1
    16    33     5    1
    17     5     4    1
    18     5     6    1
    19    20    14    1
    20    15    11    1
    21     4    31    1
    22     4    30    1
    23    42    12    1
    24     2    25    1
    25     2    26    1
    26    12     6    1
    27    12    13    1
    28     6    35    1
    29     6    34    1
    30    43    13    1
    31    36     7    1
    32    14    11    1
    33    14    19    2
    34    11    41    1
    35    11     9    1
    36    13     7    1
    37    13    21    1
    38    40     9    1
    39     7    37    1
    40     7     8    1
    41     9    21    1
    42     9    39    1
    43     8    16    2
    44     8    38    1
