@<TRIPOS>MOLECULE
RNBGYGVWRKECFJ-ARQDHWQXSA-J	11085192	-1820.602281105169
 30 30 0 0 0
SMALL
MULLIKEN NwChem

@<TRIPOS>ATOM
      1 C           2.6445    0.1179   -0.4141 C.3     1  LIG1       -0.040000000000000036
      2 C          -1.8254    1.1198   -0.6118 C.3     1  LIG1       -0.08999999999999986
      3 C           1.1736    0.1735    0.0486 C.3     1  LIG1       0.1200000000000001
      4 C           0.6896   -0.9898    0.9319 C.3     1  LIG1       0.1299999999999999
      5 C          -0.8403   -0.9110    0.7729 C.3     1  LIG1       0.05999999999999961
      6 C          -1.0770   -0.2391   -0.6590 C.3     1  LIG1          0.54
      7 O           1.1295   -0.9390    2.2691 O.3     1  LIG1      -0.7599999999999998
      8 O          -1.5004   -2.1688    0.7642 O.3     1  LIG1      -0.7400000000000002
      9 O          -1.6498   -1.1146   -1.5021 O.3     1  LIG1      -0.7799999999999994
     10 O           5.5327    0.4618    2.1346 O.3     1  LIG1      -0.7699999999999996
     11 O           3.7359   -1.4326    2.1128 O.3     1  LIG1      -0.7899999999999991
     12 O           5.3813   -1.1914    0.1215 O.2     1  LIG1      -0.7899999999999991
     13 O          -4.1724    2.2187   -2.3353 O.2     1  LIG1      -0.7400000000000002
     14 O          -4.0738   -0.3713   -2.1728 O.3     1  LIG1      -0.7899999999999991
     15 O          -5.7203    0.9375   -0.6622 O.3     1  LIG1      -0.7200000000000006
     16 O           3.5404    0.6199    0.5471 O.3     1  LIG1      -0.6400000000000006
     17 O          -3.2029    1.0247   -0.2219 O.3     1  LIG1      -0.6099999999999994
     18 O           0.3030    0.1454   -1.0902 O.3     1  LIG1      -0.5999999999999996
     19 P           4.6738   -0.4930    1.2949 P.3     1  LIG1       0.9299999999999997
     20 P          -4.4006    1.0376   -1.4040 P.3     1  LIG1       1.0099999999999998
     21 H           2.9034   -0.9088   -0.7148 H       1  LIG1          0.12
     22 H           2.7024    0.7392   -1.3337 H       1  LIG1       0.10999999999999999
     23 H          -1.3276    1.7850    0.1121 H       1  LIG1          0.13
     24 H          -1.7423    1.5789   -1.6053 H       1  LIG1          0.12
     25 H           1.0497    1.1134    0.6222 H       1  LIG1       0.09999999999999998
     26 H           1.0065   -1.9270    0.4362 H       1  LIG1       0.08999999999999997
     27 H          -1.2487   -0.2788    1.5786 H       1  LIG1       0.09999999999999998
     28 H           2.1428   -1.0576    2.2353 H       1  LIG1       0.43999999999999995
     29 H          -1.7816   -2.1586   -0.2043 H       1  LIG1          0.39
     30 H          -3.1211   -0.6755   -1.9235 H       1  LIG1       0.43999999999999995
@<TRIPOS>BOND
     1    13    20    2
     2    14    30    1
     3    14    20    1
     4    24     2    1
     5     9     6    1
     6    20    15    1
     7    20    17    1
     8    22     1    1
     9    18     6    1
    10    18     3    1
    11    21     1    1
    12     6     2    1
    13     6     5    1
    14     2    17    1
    15     2    23    1
    16     1     3    1
    17     1    16    1
    18    29     8    1
    19     3    25    1
    20     3     4    1
    21    12    19    2
    22    26     4    1
    23    16    19    1
    24     8     5    1
    25     5     4    1
    26     5    27    1
    27     4     7    1
    28    19    11    1
    29    19    10    1
    30    28     7    1
