@<TRIPOS>MOLECULE
RNQHMTFBUSSBJQ-CRCLSJGQSA-L	6045186	-649.055158060613
 22 21 0 0 0
SMALL
MULLIKEN NwChem

@<TRIPOS>ATOM
      1 C           1.2986   -2.4315   -0.6091 C.3     1  LIG1      -0.45999999999999996
      2 C           0.3663   -2.3236    1.7184 C.3     1  LIG1      -0.4500000000000002
      3 C           0.2518   -1.7568    0.2928 C.3     1  LIG1      -0.07000000000000028
      4 C           0.3643   -0.2024    0.2223 C.3     1  LIG1       -0.16000000000000014
      5 C          -0.2630    0.3170   -1.1064 C.3     1  LIG1       0.040000000000000036
      6 C          -0.2847    0.3964    1.5199 C.2     1  LIG1          0.54
      7 C           0.2442    1.7691   -1.4737 C.2     1  LIG1       0.4800000000000004
      8 O          -1.6769    0.1189   -1.0989 O.3     1  LIG1      -0.7300000000000004
      9 O           0.4894    0.6339    2.4779 O.co2   1  LIG1      -0.6699999999999999
     10 O          -1.5577    0.4863    1.5309 O.co2   1  LIG1      -0.6799999999999997
     11 O           1.4886    1.8071   -1.7103 O.co2   1  LIG1      -0.6899999999999995
     12 O          -0.5967    2.6980   -1.5271 O.co2   1  LIG1      -0.6899999999999995
     13 H           2.3096   -2.2658   -0.2080 H       1  LIG1          0.14
     14 H           1.2766   -2.0187   -1.6232 H       1  LIG1       0.15000000000000002
     15 H           1.1421   -3.5215   -0.6772 H       1  LIG1          0.14
     16 H           1.2905   -1.9807    2.1982 H       1  LIG1          0.14
     17 H          -0.4640   -1.9714    2.3370 H       1  LIG1          0.14
     18 H           0.3577   -3.4278    1.7084 H       1  LIG1          0.13
     19 H          -0.7501   -1.9993   -0.0898 H       1  LIG1       0.10999999999999999
     20 H           1.4219    0.0804    0.2235 H       1  LIG1       0.08999999999999997
     21 H           0.1234   -0.3074   -1.9308 H       1  LIG1       0.10999999999999999
     22 H          -1.9180    0.3826   -0.1716 H       1  LIG1           0.39
@<TRIPOS>BOND
     1    21     5    1
     2    11     7   ar
     3    14     1    1
     4    12     7   ar
     5     7     5    1
     6     5     8    1
     7     5     4    1
     8     8    22    1
     9    15     1    1
    10     1    13    1
    11     1     3    1
    12    19     3    1
    13     4    20    1
    14     4     3    1
    15     4     6    1
    16     3     2    1
    17     6    10   ar
    18     6     9   ar
    19    18     2    1
    20     2    16    1
    21     2    17    1
