@<TRIPOS>MOLECULE
RODBXVVNKJCWQR-GSQAGGHASA-M	6045187	-1319.3421338594044
 76 79 0 0 0
SMALL
MULLIKEN NwChem

@<TRIPOS>ATOM
      1 C          -3.7939    0.7657   -5.4094 C.3     1  LIG1      -0.45999999999999996
      2 C          -2.9801    3.1428   -5.1628 C.3     1  LIG1      -0.45999999999999996
      3 C          -5.1728    2.3053    0.0143 C.3     1  LIG1      -0.4800000000000004
      4 C          -1.2171    0.7724   -1.5141 C.3     1  LIG1      -0.4900000000000002
      5 C           2.7722    0.1280    2.8420 C.3     1  LIG1      -0.4900000000000002
      6 C          -5.5295    1.2194   -2.8616 C.3     1  LIG1      -0.28000000000000025
      7 C          -4.8574    2.3270   -3.6885 C.3     1  LIG1      -0.2599999999999998
      8 C          -4.6614    0.5730   -1.7635 C.3     1  LIG1      -0.28000000000000025
      9 C           0.5262   -2.4482    1.1962 C.3     1  LIG1      -0.34999999999999964
     10 C           1.9264   -2.6937    1.7672 C.3     1  LIG1      -0.2599999999999998
     11 C          -3.5870   -0.5086    0.8749 C.3     1  LIG1      -0.29000000000000004
     12 C          -2.3280   -1.0749    1.5390 C.3     1  LIG1      -0.29000000000000004
     13 C           0.7424    1.4328    0.7044 C.3     1  LIG1      -0.3600000000000003
     14 C           5.0282    0.2353    0.6800 C.3     1  LIG1      -0.28000000000000025
     15 C          -0.7624    1.6793    0.7870 C.3     1  LIG1      -0.29000000000000004
     16 C           3.5444    0.5775    0.4680 C.3     1  LIG1      -0.2999999999999998
     17 C          -3.5680    1.9277   -4.4315 C.3     1  LIG1      -0.07000000000000028
     18 C          -4.0564    1.5383   -0.7204 C.3     1  LIG1      -0.07000000000000028
     19 C           0.2000   -0.9921    0.9207 C.2     1  LIG1      0.08999999999999986
     20 C          -3.1203    0.8565    0.3196 C.3     1  LIG1      -0.11000000000000032
     21 C          -1.2377   -0.7676    0.4879 C.3     1  LIG1      -0.16999999999999993
     22 C           1.1228   -0.0108    0.9777 C.2     1  LIG1      0.07000000000000028
     23 C           2.9327   -1.7700    1.0809 C.3     1  LIG1      -0.1299999999999999
     24 C           5.3275   -1.2509    0.4595 C.3     1  LIG1       0.13999999999999968
     25 C           4.4167   -2.1457    1.3155 C.3     1  LIG1       -0.20000000000000018
     26 C           4.8419   -2.2067    2.8392 C.2     1  LIG1       0.5499999999999998
     27 C          -1.5856    0.6604   -0.0276 C.3     1  LIG1      0.1200000000000001
     28 C           2.5908   -0.2728    1.3546 C.3     1  LIG1      0.05999999999999961
     29 O           5.2474   -1.5851   -0.9502 O.3     1  LIG1      -0.7100000000000009
     30 O           4.2532   -3.0906    3.5058 O.co2   1  LIG1      -0.6699999999999999
     31 O           5.7118   -1.3752    3.2157 O.co2   1  LIG1      -0.6699999999999999
     32 H          -4.5631    1.0229   -6.1507 H       1  LIG1          0.14
     33 H          -4.1172   -0.1455   -4.8948 H       1  LIG1       0.15000000000000002
     34 H          -2.8722    0.5279   -5.9535 H       1  LIG1          0.14
     35 H          -3.6741    3.5095   -5.9316 H       1  LIG1          0.14
     36 H          -2.7850    3.9690   -4.4683 H       1  LIG1          0.14
     37 H          -2.0351    2.8908   -5.6588 H       1  LIG1          0.14
     38 H          -5.8190    1.6150    0.5722 H       1  LIG1          0.14
     39 H          -4.7504    3.0182    0.7319 H       1  LIG1          0.14
     40 H          -5.8081    2.8714   -0.6760 H       1  LIG1       0.15000000000000002
     41 H          -0.1701    0.4877   -1.6592 H       1  LIG1       0.15000000000000002
     42 H          -1.8192    0.0984   -2.1311 H       1  LIG1       0.15000000000000002
     43 H          -1.3416    1.7929   -1.8968 H       1  LIG1       0.15000000000000002
     44 H           2.5316    1.1911    2.9790 H       1  LIG1          0.14
     45 H           2.1025   -0.4495    3.4854 H       1  LIG1          0.14
     46 H           3.7944   -0.0418    3.1856 H       1  LIG1       0.15000000000000002
     47 H          -6.4409    1.6331   -2.4107 H       1  LIG1          0.13
     48 H          -5.8750    0.4230   -3.5339 H       1  LIG1          0.13
     49 H          -4.6324    3.1805   -3.0338 H       1  LIG1          0.13
     50 H          -5.5831    2.6991   -4.4284 H       1  LIG1          0.12
     51 H          -5.2895   -0.1599   -1.2405 H       1  LIG1          0.13
     52 H          -3.8599   -0.0068   -2.2346 H       1  LIG1          0.14
     53 H          -0.2337   -2.8722    1.8691 H       1  LIG1          0.14
     54 H           0.4063   -3.0012    0.2472 H       1  LIG1          0.14
     55 H           2.2212   -3.7389    1.6254 H       1  LIG1       0.10999999999999999
     56 H           1.9617   -2.5365    2.8467 H       1  LIG1          0.14
     57 H          -4.4441   -0.4165    1.5530 H       1  LIG1          0.13
     58 H          -3.8869   -1.1825    0.0627 H       1  LIG1          0.14
     59 H          -2.4074   -2.1411    1.7727 H       1  LIG1          0.14
     60 H          -2.1073   -0.5469    2.4762 H       1  LIG1          0.13
     61 H           1.1291    1.7426   -0.2774 H       1  LIG1       0.15000000000000002
     62 H           1.2470    2.0870    1.4262 H       1  LIG1       0.15000000000000002
     63 H           5.6406    0.8305   -0.0111 H       1  LIG1          0.12
     64 H           5.3379    0.4679    1.7022 H       1  LIG1          0.14
     65 H          -1.0093    2.7007    0.4601 H       1  LIG1          0.13
     66 H          -1.0628    1.6066    1.8410 H       1  LIG1          0.13
     67 H           3.3919    1.6489    0.6528 H       1  LIG1          0.14
     68 H           3.2811    0.4108   -0.5895 H       1  LIG1          0.13
     69 H          -2.8316    1.6010   -3.6872 H       1  LIG1          0.14
     70 H          -3.4536    2.2850   -1.2549 H       1  LIG1          0.13
     71 H          -3.1230    1.5364    1.1821 H       1  LIG1          0.12
     72 H          -1.4270   -1.4691   -0.3446 H       1  LIG1          0.12
     73 H           2.7432   -1.8959   -0.0061 H       1  LIG1       0.10999999999999999
     74 H           6.3666   -1.4461    0.7345 H       1  LIG1          0.12
     75 H           4.5333   -3.1726    0.9413 H       1  LIG1       0.10999999999999999
     76 H           4.3039   -1.6212   -1.1685 H       1  LIG1       0.42000000000000004
@<TRIPOS>BOND
     1    32     1    1
     2    34     1    1
     3    35     2    1
     4    37     2    1
     5     1    33    1
     6     1    17    1
     7     2    36    1
     8     2    17    1
     9    17     7    1
    10    17    69    1
    11    50     7    1
    12     7    49    1
    13     7     6    1
    14    48     6    1
    15     6    47    1
    16     6     8    1
    17    52     8    1
    18    42     4    1
    19    43     4    1
    20     8    51    1
    21     8    18    1
    22    41     4    1
    23     4    27    1
    24    70    18    1
    25    76    29    1
    26    29    24    1
    27    18     3    1
    28    18    20    1
    29    40     3    1
    30    68    16    1
    31    72    21    1
    32    61    13    1
    33    27    20    1
    34    27    21    1
    35    27    15    1
    36    63    14    1
    37    73    23    1
    38     3    38    1
    39     3    39    1
    40    58    11    1
    41    54     9    1
    42    20    11    1
    43    20    71    1
    44    24    14    1
    45    24    74    1
    46    24    25    1
    47    65    15    1
    48    16    67    1
    49    16    14    1
    50    16    28    1
    51    21    19    1
    52    21    12    1
    53    14    64    1
    54    13    15    1
    55    13    22    1
    56    13    62    1
    57    15    66    1
    58    11    12    1
    59    11    57    1
    60    19    22    2
    61    19     9    1
    62    75    25    1
    63    22    28    1
    64    23    25    1
    65    23    28    1
    66    23    10    1
    67     9    10    1
    68     9    53    1
    69    25    26    1
    70    28     5    1
    71    12    59    1
    72    12    60    1
    73    55    10    1
    74    10    56    1
    75    26    31   ar
    76    26    30   ar
    77     5    44    1
    78     5    46    1
    79     5    45    1
