@<TRIPOS>MOLECULE
RODXRVNMMDRFIK-UHFFFAOYSA-N	6045188	-686.6510762520774
 22 23 0 0 0
SMALL
MULLIKEN NwChem

@<TRIPOS>ATOM
      1 C          -0.3462   -3.6581   -1.7622 C.3     1  LIG1       -0.2400000000000002
      2 C           1.1820   -0.2735    1.9616 C.ar    1  LIG1      -0.1200000000000001
      3 C           1.3857    0.8726    2.6551 C.ar    1  LIG1       -0.2400000000000002
      4 C           0.2168   -1.4205   -0.0567 C.ar    1  LIG1      -0.28000000000000025
      5 C          -0.7255    1.0822   -0.9405 C.ar    1  LIG1         -0.25
      6 C           0.4639   -0.2646    0.7179 C.ar    1  LIG1       0.11000000000000032
      7 C          -0.9610   -0.0613   -1.6893 C.ar    1  LIG1       0.3200000000000003
      8 C          -0.0156    0.9745    0.2568 C.ar    1  LIG1       0.3200000000000003
      9 C          -0.4850   -1.3238   -1.2429 C.ar    1  LIG1       0.34999999999999964
     10 C           0.8896    2.1554    2.1738 C.ar    1  LIG1       0.5899999999999999
     11 O          -1.6482    0.0261   -2.8536 O.3     1  LIG1      -0.6699999999999999
     12 O           1.0223    3.2263    2.7182 O.2     1  LIG1      -0.5399999999999991
     13 O          -0.7993   -2.3532   -2.0954 O.3     1  LIG1      -0.5500000000000007
     14 O           0.1928    2.1246    0.9594 O.2     1  LIG1      -0.5399999999999991
     15 H          -0.6891   -4.3124   -2.5653 H       1  LIG1       0.18999999999999995
     16 H          -0.7731   -3.9945   -0.8083 H       1  LIG1       0.18000000000000005
     17 H           0.7496   -3.6928   -1.7031 H       1  LIG1       0.18000000000000005
     18 H           1.5611   -1.2208    2.3395 H       1  LIG1       0.19999999999999996
     19 H           1.9225    0.9015    3.5957 H       1  LIG1       0.18000000000000005
     20 H           0.5873   -2.3757    0.2990 H       1  LIG1       0.18999999999999995
     21 H          -1.0873    2.0447   -1.2816 H       1  LIG1       0.18000000000000005
     22 H          -1.7046   -0.8725   -3.2248 H       1  LIG1       0.45999999999999996
@<TRIPOS>BOND
     1    22    11    1
     2    11     7    1
     3    15     1    1
     4    13     1    1
     5    13     9    1
     6     1    17    1
     7     1    16    1
     8     7     9   ar
     9     7     5   ar
    10    21     5    1
    11     9     4   ar
    12     5     8   ar
    13     4    20    1
    14     4     6   ar
    15     8     6   ar
    16     8    14   ar
    17     6     2   ar
    18    14    10   ar
    19     2    18    1
    20     2     3   ar
    21    10     3   ar
    22    10    12    2
    23     3    19    1
