@<TRIPOS>MOLECULE
ROHFNLRQFUQHCH-YFKPBYRVSA-N	6045189	-441.54046937893685
 22 21 0 0 0
SMALL
MULLIKEN NwChem

@<TRIPOS>ATOM
      1 CD1         1.7582   -0.1026   -1.6392 C.3     1  LEU1      -0.45999999999999996
      2 CD2         1.5309    2.3498   -1.0733 C.3     1  LEU1      -0.45999999999999996
      3 CB         -0.3991    0.8082   -0.6192 C.3     1  LEU1      -0.2599999999999998
      4 CG          1.1357    0.9196   -0.6771 C.3     1  LEU1      -0.07000000000000028
      5 CA         -0.9888   -0.5525   -0.1860 C.3     1  LEU1       -0.05999999999999961
      6 C          -0.4796   -0.9061    1.2106 C.2     1  LEU1       0.5800000000000001
      7 N          -2.4486   -0.4733   -0.2391 N.3     1  LEU1      -0.7599999999999998
      8 OXT        -1.0072   -0.5549    2.2442 O.2     1  LEU1      -0.5199999999999996
      9 O           0.6575   -1.6462    1.1837 O.3     1  LEU1      -0.5800000000000001
     10 HD11        1.3348    0.0043   -2.6467 H       1  LEU1          0.14
     11 HD12        1.5907   -1.1301   -1.3023 H       1  LEU1       0.15000000000000002
     12 HD13        2.8416    0.0470   -1.7160 H       1  LEU1       0.15000000000000002
     13 HD21        1.1644    2.5898   -2.0799 H       1  LEU1       0.15000000000000002
     14 HD22        1.1115    3.0890   -0.3802 H       1  LEU1       0.15000000000000002
     15 HD23        2.6204    2.4709   -1.0777 H       1  LEU1       0.15000000000000002
     16 HB1        -0.7904    1.5714    0.0688 H       1  LEU1       0.15000000000000002
     17 HB2        -0.8241    1.0282   -1.6067 H       1  LEU1       0.15000000000000002
     18 HG          1.5378    0.7251    0.3274 H       1  LEU1          0.13
     19 HA         -0.6596   -1.3305   -0.8812 H       1  LEU1       0.18000000000000005
     20 H1         -2.8462   -1.3902   -0.0367 H       1  LEU1       0.32999999999999996
     21 H2         -2.7603    0.1290    0.5239 H       1  LEU1       0.31999999999999995
     22 H           0.9222   -1.7824    2.1139 H       1  LEU1       0.43999999999999995
@<TRIPOS>BOND
     1    10     1    1
     2    13     2    1
     3    12     1    1
     4     1    11    1
     5     1     4    1
     6    17     3    1
     7    15     2    1
     8     2     4    1
     9     2    14    1
    10    19     5    1
    11     4     3    1
    12     4    18    1
    13     3     5    1
    14     3    16    1
    15     7     5    1
    16     7    20    1
    17     7    21    1
    18     5     6    1
    19     9     6    1
    20     9    22    1
    21     6     8    2
