@<TRIPOS>MOLECULE
ROHKDMWQXDHLDY-HOHOQCMASA-N	6045190	-1903.0718913802991
 112 112 0 0 0
SMALL
MULLIKEN NwChem

@<TRIPOS>ATOM
      1 C          -1.9693   -4.8193    0.9181 C.3     1  LIG1            -0.54
      2 C          -3.6126   -5.0696   -1.0123 C.3     1  LIG1        -0.54
      3 C          -4.4796   -0.2649    3.5950 C.3     1  LIG1      -0.5499999999999998
      4 C          -4.7874    0.4869   -2.6625 C.3     1  LIG1        -0.54
      5 C           0.2886   -3.3185   -1.5107 C.3     1  LIG1        -0.54
      6 C          -0.7600    0.1510    3.0109 C.3     1  LIG1      -0.5499999999999998
      7 C          -1.8628    3.3760    0.9372 C.3     1  LIG1      -0.5499999999999998
      8 C           1.9594    3.1274   -4.7763 C.3     1  LIG1      -0.5300000000000002
      9 C           4.5822    3.1617   -1.8695 C.3     1  LIG1      -0.5599999999999996
     10 C           4.8957   -1.9235    2.2350 C.3     1  LIG1       -0.2400000000000002
     11 C          -4.3044   -3.9006    2.6705 C.3     1  LIG1      -0.2999999999999998
     12 C          -5.4133    0.0849    0.6418 C.3     1  LIG1      -0.3099999999999996
     13 C          -2.1832   -1.2723   -2.5067 C.3     1  LIG1      -0.33999999999999986
     14 C           0.7563   -1.7464    1.1215 C.3     1  LIG1      -0.33000000000000007
     15 C           0.5566    3.0161    2.8325 C.3     1  LIG1      -0.3099999999999996
     16 C          -0.7359    3.0174   -1.9065 C.3     1  LIG1      -0.33999999999999986
     17 C          -4.4112   -4.3135    1.2189 C.2     1  LIG1      -0.1900000000000004
     18 C          -3.5804   -2.5551    2.9339 C.3     1  LIG1      -0.33999999999999986
     19 C          -4.7283   -1.1187    1.2327 C.2     1  LIG1      -0.16999999999999993
     20 C          -4.4302    0.9614   -0.1818 C.3     1  LIG1      -0.33999999999999986
     21 C          -2.8161   -0.4725   -1.4007 C.2     1  LIG1      -0.17999999999999972
     22 C          -0.6332   -1.1720   -2.5218 C.3     1  LIG1      -0.33999999999999986
     23 C           0.2475   -1.1693   -0.1800 C.2     1  LIG1      -0.1900000000000004
     24 C           1.4452   -0.7220    2.0446 C.3     1  LIG1      -0.3600000000000003
     25 C           1.1408    1.7032    2.3917 C.2     1  LIG1      -0.1900000000000004
     26 C           0.4818    4.0501    1.6820 C.3     1  LIG1      -0.33999999999999986
     27 C           0.0495    3.4509   -0.6887 C.2     1  LIG1      -0.20999999999999996
     28 C          -0.0222    3.3389   -3.2277 C.3     1  LIG1      -0.33000000000000007
     29 C           1.7699    1.6362   -2.7511 C.2     1  LIG1      -0.16999999999999993
     30 C           3.0535    0.8540   -2.9298 C.3     1  LIG1      -0.41000000000000014
     31 C           5.1574    0.5016    0.8218 C.ar    1  LIG1       -0.3099999999999996
     32 C          -3.3986   -4.7216    0.4397 C.2     1  LIG1      0.17999999999999972
     33 C          -4.3150   -1.2903    2.4981 C.2     1  LIG1      0.16000000000000014
     34 C          -3.9229    0.2858   -1.4428 C.2     1  LIG1      0.16000000000000014
     35 C           0.0055   -1.8454   -1.3218 C.2     1  LIG1      0.1299999999999999
     36 C           0.6126    0.4712    2.4701 C.2     1  LIG1      0.1900000000000004
     37 C          -0.4250    3.6227    0.5525 C.2     1  LIG1      0.1900000000000004
     38 C           1.2805    2.6152   -3.5277 C.2     1  LIG1      0.15000000000000036
     39 C           4.5296    1.8542   -1.1146 C.ar    1  LIG1      0.07000000000000028
     40 C           3.8268    0.7427   -1.6273 C.ar    1  LIG1       0.07000000000000028
     41 C           5.1876    1.7080    0.1109 C.ar    1  LIG1       0.29000000000000004
     42 C           4.4656   -0.5934    0.3026 C.ar    1  LIG1       0.3600000000000003
     43 C           3.7946   -0.4694   -0.9281 C.ar    1  LIG1       0.16999999999999993
     44 O           5.8721    2.7946    0.6066 O.3     1  LIG1      -0.6899999999999995
     45 O           3.1315   -1.5748   -1.4278 O.3     1  LIG1      -0.7200000000000006
     46 O           4.3456   -1.7997    0.9346 O.3     1  LIG1      -0.5399999999999991
     47 H          -1.4564   -5.6762    0.4631 H       1  LIG1       0.15000000000000002
     48 H          -1.8901   -4.9179    2.0053 H       1  LIG1       0.16000000000000003
     49 H          -1.4063   -3.9235    0.6249 H       1  LIG1       0.18000000000000005
     50 H          -4.6605   -4.9673   -1.3108 H       1  LIG1       0.16000000000000003
     51 H          -3.0123   -4.4205   -1.6651 H       1  LIG1       0.18000000000000005
     52 H          -3.2922   -6.0992   -1.2223 H       1  LIG1       0.16000000000000003
     53 H          -4.9169    0.6769    3.2544 H       1  LIG1       0.16000000000000003
     54 H          -5.1067   -0.6554    4.4092 H       1  LIG1       0.16000000000000003
     55 H          -3.5033   -0.0337    4.0421 H       1  LIG1       0.17000000000000004
     56 H          -4.8685    1.5553   -2.9069 H       1  LIG1       0.16000000000000003
     57 H          -4.4176   -0.0342   -3.5484 H       1  LIG1       0.16000000000000003
     58 H          -5.8101    0.1321   -2.4714 H       1  LIG1       0.17000000000000004
     59 H           0.6719   -3.8070   -0.6131 H       1  LIG1       0.17000000000000004
     60 H          -0.6216   -3.8493   -1.8186 H       1  LIG1       0.18000000000000005
     61 H           1.0252   -3.4598   -2.3123 H       1  LIG1       0.17000000000000004
     62 H          -0.7016   -0.6355    3.7770 H       1  LIG1       0.16000000000000003
     63 H          -1.2544    1.0160    3.4614 H       1  LIG1       0.17000000000000004
     64 H          -1.4209   -0.2280    2.2195 H       1  LIG1       0.18000000000000005
     65 H          -2.2281    4.1576    1.6149 H       1  LIG1       0.16000000000000003
     66 H          -2.5321    3.3304    0.0752 H       1  LIG1       0.17000000000000004
     67 H          -1.9630    2.4229    1.4737 H       1  LIG1       0.18000000000000005
     68 H           2.2891    4.1659   -4.6321 H       1  LIG1       0.16000000000000003
     69 H           2.8295    2.5378   -5.0763 H       1  LIG1       0.16000000000000003
     70 H           1.2556    3.1357   -5.6217 H       1  LIG1       0.16000000000000003
     71 H           5.0216    3.0239   -2.8663 H       1  LIG1       0.17000000000000004
     72 H           3.5763    3.5690   -2.0239 H       1  LIG1       0.18000000000000005
     73 H           5.1808    3.9043   -1.3394 H       1  LIG1       0.16000000000000003
     74 H           5.9888   -1.8176    2.2278 H       1  LIG1       0.17000000000000004
     75 H           4.4648   -1.1858    2.9269 H       1  LIG1       0.17000000000000004
     76 H           4.6349   -2.9283    2.5761 H       1  LIG1       0.18000000000000005
     77 H          -5.3094   -3.8490    3.1068 H       1  LIG1          0.14
     78 H          -3.7668   -4.6773    3.2324 H       1  LIG1       0.15000000000000002
     79 H          -6.2346   -0.2468   -0.0094 H       1  LIG1          0.14
     80 H          -5.8700    0.7096    1.4173 H       1  LIG1       0.15000000000000002
     81 H          -2.4603   -2.3315   -2.3954 H       1  LIG1       0.17000000000000004
     82 H          -2.5598   -0.9620   -3.4869 H       1  LIG1       0.15000000000000002
     83 H          -0.0842   -2.2075    1.6613 H       1  LIG1       0.18000000000000005
     84 H           1.4767   -2.5490    0.9304 H       1  LIG1       0.15000000000000002
     85 H          -0.4380    2.8919    3.2733 H       1  LIG1       0.16000000000000003
     86 H           1.1895    3.4389    3.6275 H       1  LIG1       0.15000000000000002
     87 H          -0.9706    1.9433   -1.8589 H       1  LIG1       0.16000000000000003
     88 H          -1.7138    3.5174   -1.9226 H       1  LIG1       0.15000000000000002
     89 H          -5.4013   -4.2497    0.7694 H       1  LIG1          0.13
     90 H          -3.3885   -2.4905    4.0123 H       1  LIG1          0.14
     91 H          -2.5918   -2.5861    2.4570 H       1  LIG1       0.17000000000000004
     92 H          -4.5056   -1.9070    0.5182 H       1  LIG1          0.13
     93 H          -4.9310    1.9042   -0.4440 H       1  LIG1          0.14
     94 H          -3.5905    1.2176    0.4705 H       1  LIG1       0.16000000000000003
     95 H          -2.3161   -0.5595   -0.4371 H       1  LIG1          0.13
     96 H          -0.2675   -1.6501   -3.4408 H       1  LIG1       0.15000000000000002
     97 H          -0.3447   -0.1183   -2.5813 H       1  LIG1       0.16000000000000003
     98 H           0.0161   -0.1030   -0.1621 H       1  LIG1          0.14
     99 H           1.7625   -1.2699    2.9468 H       1  LIG1       0.15000000000000002
    100 H           2.3574   -0.3664    1.5608 H       1  LIG1       0.16000000000000003
    101 H           2.1396    1.7885    1.9567 H       1  LIG1          0.12
    102 H           0.1176    5.0007    2.1036 H       1  LIG1          0.14
    103 H           1.4922    4.2370    1.2974 H       1  LIG1          0.14
    104 H           1.1103    3.6324   -0.8563 H       1  LIG1          0.13
    105 H          -0.7159    3.1554   -4.0634 H       1  LIG1       0.15000000000000002
    106 H           0.1791    4.4222   -3.2593 H       1  LIG1       0.15000000000000002
    107 H           1.2170    1.3543   -1.8583 H       1  LIG1          0.14
    108 H           2.8161   -0.1606   -3.2711 H       1  LIG1       0.16000000000000003
    109 H           3.6872    1.3055   -3.6979 H       1  LIG1       0.17000000000000004
    110 H           5.6723    0.4350    1.7749 H       1  LIG1       0.17000000000000004
    111 H           6.2773    2.5471    1.4517 H       1  LIG1       0.44999999999999996
    112 H           2.1754   -1.4479   -1.2654 H       1  LIG1       0.43999999999999995
@<TRIPOS>BOND
     1    70     8    1
     2    69     8    1
     3     8    68    1
     4     8    38    1
     5   105    28    1
     6   109    30    1
     7    57     4    1
     8    38    28    1
     9    38    29    2
    10    82    13    1
    11    96    22    1
    12   108    30    1
    13   106    28    1
    14    28    16    1
    15    30    29    1
    16    30    40    1
    17    56     4    1
    18    71     9    1
    19    29   107    1
    20     4    58    1
    21     4    34    1
    22    97    22    1
    23    22    13    1
    24    22    35    1
    25    13    81    1
    26    13    21    1
    27    61     5    1
    28    72     9    1
    29    88    16    1
    30    16    87    1
    31    16    27    1
    32     9    73    1
    33     9    39    1
    34    60     5    1
    35    51     2    1
    36    40    39   ar
    37    40    43   ar
    38     5    35    1
    39     5    59    1
    40    34    21    2
    41    34    20    1
    42    45   112    1
    43    45    43    1
    44    21    95    1
    45    35    23    2
    46    50     2    1
    47    52     2    1
    48    39    41   ar
    49     2    32    1
    50    43    42   ar
    51   104    27    1
    52    27    37    2
    53    93    20    1
    54    20    94    1
    55    20    12    1
    56    23    98    1
    57    23    14    1
    58    79    12    1
    59    66     7    1
    60    41    44    1
    61    41    31   ar
    62    42    31   ar
    63    42    46    1
    64    32     1    1
    65    32    17    2
    66    47     1    1
    67    92    19    1
    68    37     7    1
    69    37    26    1
    70    44   111    1
    71    49     1    1
    72    12    19    1
    73    12    80    1
    74    89    17    1
    75    31   110    1
    76     1    48    1
    77    84    14    1
    78    46    10    1
    79     7    67    1
    80     7    65    1
    81    14    83    1
    82    14    24    1
    83    17    11    1
    84    19    33    2
    85   103    26    1
    86   100    24    1
    87    26   102    1
    88    26    15    1
    89   101    25    1
    90    24    36    1
    91    24    99    1
    92    64     6    1
    93    74    10    1
    94    10    76    1
    95    10    75    1
    96    25    36    2
    97    25    15    1
    98    91    18    1
    99    36     6    1
   100    33    18    1
   101    33     3    1
   102    11    18    1
   103    11    77    1
   104    11    78    1
   105    15    85    1
   106    15    86    1
   107    18    90    1
   108     6    63    1
   109     6    62    1
   110    53     3    1
   111     3    55    1
   112     3    54    1
