@<TRIPOS>MOLECULE
RQFCJASXJCIDSX-UUOKFMHZSA-L	11085152	-1605.3568662208506
 36 38 0 0 0
SMALL
MULLIKEN NwChem

@<TRIPOS>ATOM
      1 C           2.5433   -1.3633   -0.1997 C.3     1  LIG1       -0.04999999999999982
      2 C          -2.9099   -0.5997   -1.7629 C.ar    1  LIG1       0.17999999999999972
      3 C           1.8249   -1.4345   -1.5449 C.3     1  LIG1       0.1200000000000001
      4 C          -3.1408    0.0381    0.2759 C.ar    1  LIG1       0.08999999999999986
      5 C           1.7584   -0.0985   -2.3049 C.3     1  LIG1       0.07000000000000028
      6 C           0.3746    0.4103   -1.9156 C.3     1  LIG1       0.07000000000000028
      7 C          -1.8338   -0.3870    0.1510 C.ar    1  LIG1       0.5599999999999996
      8 C          -3.5592    0.6540    1.5599 C.ar    1  LIG1       0.4900000000000002
      9 C          -0.4252   -0.9049   -1.8828 C.3     1  LIG1          0.25
     10 C          -1.2937    0.3959    2.3377 C.ar    1  LIG1       0.5899999999999999
     11 N          -0.3551    0.6428    3.2325 N.pl3   1  LIG1      -0.8399999999999999
     12 N          -3.8021   -0.1110   -0.9408 N.ar    1  LIG1      -0.5700000000000003
     13 N          -0.9257   -0.3488    1.1552 N.ar    1  LIG1      -0.7599999999999998
     14 N          -2.5682    0.8105    2.4958 N.ar    1  LIG1      -0.6699999999999999
     15 N          -1.6649   -0.8203   -1.1526 N.ar    1  LIG1         -0.5
     16 O           1.7881   -0.3767   -3.7186 O.3     1  LIG1      -0.6999999999999993
     17 O          -0.1293    1.3136   -2.9001 O.3     1  LIG1      -0.6799999999999997
     18 O          -4.7349    1.0163    1.7486 O.2     1  LIG1      -0.6600000000000001
     19 O           3.3815    0.7798    2.4264 O.3     1  LIG1      -0.6799999999999997
     20 O           1.4196    1.9510    1.1774 O.3     1  LIG1      -0.7400000000000002
     21 O           3.5472    1.4027   -0.1391 O.2     1  LIG1      -0.7100000000000009
     22 O           1.9192   -0.4400    0.6601 O.3     1  LIG1      -0.6400000000000006
     23 O           0.4531   -1.8634   -1.3226 O.3     1  LIG1      -0.5500000000000007
     24 P           2.7575    1.0109    1.0829 P.3     1  LIG1       1.1400000000000006
     25 H           3.5910   -1.0908   -0.3811 H       1  LIG1       0.16000000000000003
     26 H           2.5100   -2.3618    0.2620 H       1  LIG1       0.16000000000000003
     27 H          -3.0615   -0.8684   -2.8018 H       1  LIG1       0.19999999999999996
     28 H           2.3188   -2.1804   -2.1850 H       1  LIG1       0.16000000000000003
     29 H           2.5600    0.5833   -2.0015 H       1  LIG1       0.17000000000000004
     30 H           0.4126    0.8745   -0.9252 H       1  LIG1       0.18000000000000005
     31 H          -0.6877   -1.1685   -2.9193 H       1  LIG1       0.17000000000000004
     32 H           0.4853    0.1036    3.0008 H       1  LIG1       0.29000000000000004
     33 H           0.0650   -0.5108    0.9669 H       1  LIG1           0.4
     34 H           1.2674    0.3426   -4.1157 H       1  LIG1       0.43000000000000005
     35 H          -1.0097    1.5873   -2.5967 H       1  LIG1       0.44999999999999996
     36 H           0.8770    1.7363    1.9775 H       1  LIG1       0.43000000000000005
@<TRIPOS>BOND
     1    34    16    1
     2    16     5    1
     3    31     9    1
     4    17    35    1
     5    17     6    1
     6    27     2    1
     7     5    29    1
     8     5     6    1
     9     5     3    1
    10    28     3    1
    11     6     9    1
    12     6    30    1
    13     9    23    1
    14     9    15    1
    15     2    15   ar
    16     2    12   ar
    17     3    23    1
    18     3     1    1
    19    15     7   ar
    20    12     4   ar
    21    25     1    1
    22     1    26    1
    23     1    22    1
    24    21    24    2
    25     7     4   ar
    26     7    13   ar
    27     4     8   ar
    28    22    24    1
    29    33    13    1
    30    24    20    1
    31    24    19    1
    32    13    10   ar
    33    20    36    1
    34     8    18    2
    35     8    14   ar
    36    10    14   ar
    37    10    11    1
    38    32    11    1
