@<TRIPOS>MOLECULE
RQRINYISXYAZKL-RPDRRWSUSA-L	11085151	-1589.530914730716
 38 38 0 0 0
SMALL
MULLIKEN NwChem

@<TRIPOS>ATOM
      1 C           1.6490    1.7524    0.6339 C.3     1  LIG1       -0.20000000000000018
      2 C          -1.6450    1.6192    0.2908 C.3     1  LIG1       -0.11000000000000032
      3 C           1.0191    1.3213    1.9798 C.3     1  LIG1       0.15000000000000036
      4 C          -1.5807    1.8031    1.8100 C.3     1  LIG1       0.1200000000000001
      5 C           3.4184   -0.7270   -1.4479 C.3     1  LIG1       0.04999999999999982
      6 C          -0.1892    2.2059    2.3832 C.3     1  LIG1       0.09999999999999964
      7 C           2.4624   -0.2185   -0.6012 C.2     1  LIG1       0.4800000000000004
      8 C           3.0922   -1.8836   -2.2598 C.2     1  LIG1           0.5
      9 C           0.9988   -1.8494   -1.2669 C.2     1  LIG1       0.5999999999999996
     10 N           4.7224   -0.1171   -1.5764 N.3     1  LIG1      -0.8399999999999999
     11 N           2.7569    0.8883    0.2187 N.pl3   1  LIG1      -0.6500000000000004
     12 N           1.2249   -0.7669   -0.4853 N.2     1  LIG1       -0.6799999999999997
     13 N           1.8253   -2.4247   -2.1260 N.am    1  LIG1      -0.6299999999999999
     14 O           0.6852   -0.0449    2.0597 O.3     1  LIG1      -0.7300000000000004
     15 O          -2.0665    0.6686    2.5153 O.3     1  LIG1      -0.6999999999999993
     16 O          -0.3343    2.1871    3.8086 O.3     1  LIG1      -0.6899999999999995
     17 O           3.9413   -2.3472   -3.0669 O.2     1  LIG1      -0.7100000000000009
     18 O          -0.2159   -2.4229   -1.1483 O.2     1  LIG1      -0.6899999999999995
     19 O          -2.1840   -1.1370    0.3994 O.3     1  LIG1      -0.7300000000000004
     20 O          -2.8420   -0.5117   -1.9759 O.3     1  LIG1      -0.7300000000000004
     21 O          -4.7210   -0.5988   -0.2345 O.2     1  LIG1      -0.6699999999999999
     22 O          -2.9652    1.2551   -0.1102 O.3     1  LIG1      -0.5800000000000001
     23 P          -3.2472   -0.3655   -0.3703 P.3     1  LIG1       1.1199999999999992
     24 H           0.8903    1.8132   -0.1551 H       1  LIG1       0.16000000000000003
     25 H           2.0507    2.7655    0.7753 H       1  LIG1       0.17000000000000004
     26 H          -1.3970    2.5739   -0.1966 H       1  LIG1       0.16000000000000003
     27 H          -0.9247    0.8674   -0.0383 H       1  LIG1       0.17000000000000004
     28 H           1.7827    1.5213    2.7518 H       1  LIG1       0.10999999999999999
     29 H          -2.2648    2.6238    2.0752 H       1  LIG1          0.14
     30 H           0.0240    3.2519    2.1082 H       1  LIG1          0.14
     31 H           5.3190   -0.4480   -0.8115 H       1  LIG1       0.32999999999999996
     32 H           5.1027   -0.5751   -2.4118 H       1  LIG1       0.31000000000000005
     33 H           3.5350    1.3941   -0.1950 H       1  LIG1       0.33999999999999997
     34 H           0.7028   -0.4291    1.1372 H       1  LIG1       0.43999999999999995
     35 H          -1.8791   -0.1262    1.9600 H       1  LIG1       0.43999999999999995
     36 H          -0.8326    1.3537    3.9360 H       1  LIG1       0.41000000000000003
     37 H          -0.8087   -1.8786   -0.5699 H       1  LIG1       0.45999999999999996
     38 H          -3.6868   -0.5039   -2.4498 H       1  LIG1       0.44999999999999996
@<TRIPOS>BOND
     1    17     8    2
     2    38    20    1
     3    32    10    1
     4     8    13    1
     5     8     5    1
     6    13     9    2
     7    20    23    1
     8    10     5    1
     9    10    31    1
    10     5     7    1
    11     9    18    1
    12     9    12    1
    13    18    37    1
    14     7    12    2
    15     7    11    1
    16    23    21    2
    17    23    22    1
    18    23    19    1
    19    26     2    1
    20    33    11    1
    21    24     1    1
    22    22     2    1
    23    27     2    1
    24    11     1    1
    25     2     4    1
    26     1    25    1
    27     1     3    1
    28    34    14    1
    29     4    29    1
    30     4     6    1
    31     4    15    1
    32    35    15    1
    33     3    14    1
    34     3     6    1
    35     3    28    1
    36    30     6    1
    37     6    16    1
    38    16    36    1
