@<TRIPOS>MOLECULE
RRUVJGASJONMDY-UHFFFAOYSA-L	11085150	-2447.3547412481803
 49 50 0 0 0
SMALL
MULLIKEN NwChem

@<TRIPOS>ATOM
      1 C           1.2889    1.3530    1.5141 C.3     1  LIG1      -0.5800000000000001
      2 C          -2.4292   -3.5034    0.0266 C.3     1  LIG1      -0.45999999999999996
      3 C          -5.2338    4.2998    1.1308 C.3     1  LIG1       -0.5300000000000002
      4 C           2.6669   -1.3459    2.2043 C.3     1  LIG1      -0.3200000000000003
      5 C           3.2008   -1.4762    0.7496 C.3     1  LIG1       -0.07000000000000028
      6 C          -2.9075    1.4312    1.1622 C.3     1  LIG1       -0.05999999999999961
      7 C          -0.9124    0.7223   -0.2221 C.3     1  LIG1       -0.29000000000000004
      8 C           0.6541   -0.0049    1.5333 C.3     1  LIG1       0.34999999999999964
      9 C          -2.2191   -2.0545    0.4694 C.3     1  LIG1       0.1299999999999999
     10 C          -4.1067    3.3435    0.8347 C.2     1  LIG1       0.5300000000000002
     11 C          -2.0021    1.6908    0.1791 C.2     1  LIG1       0.09999999999999964
     12 C           1.1833   -1.0852    2.1639 C.3     1  LIG1       -0.23000000000000043
     13 C          -2.1045    2.9570   -0.5681 C.2     1  LIG1       0.4299999999999997
     14 C          -0.7160   -1.6681    0.5134 C.3     1  LIG1       0.20999999999999996
     15 N          -1.3799    3.5070   -1.4630 N.pl3   1  LIG1        -0.79
     16 N          -3.9718    2.2554    1.5324 N.2     1  LIG1      -0.5499999999999998
     17 N          -3.2698    3.6843   -0.1817 N.pl3   1  LIG1      -0.6299999999999999
     18 N          -0.5368   -0.2347    0.8341 N.3     1  LIG1      -0.4400000000000004
     19 O          -2.8684   -1.8175    1.7176 O.3     1  LIG1      -0.6600000000000001
     20 O           1.3317    2.4737   -1.7505 O.3     2  LIG2      -0.6600000000000001
     21 O           3.5771    1.6680   -0.7551 O.3     2  LIG2      -0.6799999999999997
     22 O           3.1424    1.4450   -3.3267 O.2     2  LIG2      -0.6600000000000001
     23 O          -0.1598   -2.0779   -0.6819 O.3     1  LIG1      -0.5899999999999999
     24 O           1.5274   -2.8003   -2.3977 O.2     1  LIG1      -0.6400000000000006
     25 O           2.3960   -2.3663   -0.0332 O.3     1  LIG1      -0.5800000000000001
     26 O           1.5930   -0.3307   -1.4026 O.3     1  LIG1      -0.6799999999999997
     27 P           2.6486    1.7495   -1.9448 P.3     2  LIG2       1.0399999999999991
     28 P           1.4424   -1.8231   -1.2776 P.3     1  LIG1       1.1899999999999995
     29 S           0.0820   -2.4923    2.0117 S.3     1  LIG1          0.0
     30 H           1.8631    1.5337    0.5987 H       1  LIG1       0.21999999999999997
     31 H           0.5236    2.1336    1.5992 H       1  LIG1       0.17000000000000004
     32 H           1.9710    1.4506    2.3644 H       1  LIG1       0.17000000000000004
     33 H          -2.0110   -3.6676   -0.9688 H       1  LIG1       0.16000000000000003
     34 H          -3.5027   -3.7271    0.0250 H       1  LIG1       0.16000000000000003
     35 H          -1.9356   -4.1901    0.7247 H       1  LIG1       0.16000000000000003
     36 H          -5.8737    4.4448    0.2499 H       1  LIG1       0.18999999999999995
     37 H          -5.8344    3.8930    1.9465 H       1  LIG1       0.18000000000000005
     38 H          -4.8508    5.2864    1.4252 H       1  LIG1       0.18999999999999995
     39 H           3.2123   -0.5211    2.6863 H       1  LIG1       0.17000000000000004
     40 H           2.8852   -2.2559    2.7791 H       1  LIG1       0.15000000000000002
     41 H           3.2446   -0.4886    0.2782 H       1  LIG1       0.18999999999999995
     42 H           4.2183   -1.8973    0.7627 H       1  LIG1       0.15000000000000002
     43 H          -2.8396    0.4979    1.7119 H       1  LIG1       0.17000000000000004
     44 H          -1.2339    0.1468   -1.0969 H       1  LIG1       0.18000000000000005
     45 H          -0.0291    1.2515   -0.5886 H       1  LIG1          0.24
     46 H          -2.6911   -1.3860   -0.2620 H       1  LIG1       0.16000000000000003
     47 H          -0.5074    3.0016   -1.6749 H       1  LIG1       0.33999999999999997
     48 H          -3.3737    4.5625   -0.6769 H       1  LIG1          0.37
     49 H          -2.1558   -1.8799    2.3865 H       1  LIG1       0.42000000000000004
@<TRIPOS>BOND
     1    22    27    2
     2    24    28    2
     3    27    20    1
     4    27    21    1
     5    47    15    1
     6    15    13    1
     7    26    28    1
     8    28    23    1
     9    28    25    1
    10    44     7    1
    11    33     2    1
    12    23    14    1
    13    48    17    1
    14    45     7    1
    15    13    17    1
    16    13    11    2
    17    46     9    1
    18     7    11    1
    19     7    18    1
    20    17    10    1
    21    25     5    1
    22    34     2    1
    23     2     9    1
    24     2    35    1
    25    11     6    1
    26    36     3    1
    27    41     5    1
    28     9    14    1
    29     9    19    1
    30    14    18    1
    31    14    29    1
    32    30     1    1
    33     5    42    1
    34     5     4    1
    35    18     8    1
    36    10     3    1
    37    10    16    2
    38     3    38    1
    39     3    37    1
    40     6    16    1
    41     6    43    1
    42     1     8    1
    43     1    31    1
    44     1    32    1
    45     8    12    1
    46    19    49    1
    47    29    12    1
    48    12     4    1
    49     4    39    1
    50     4    40    1
