@<TRIPOS>MOLECULE
RSTKLPZEZYGQPY-UHFFFAOYSA-M	6045196	-704.4380232030841
 23 24 0 0 0
SMALL
MULLIKEN NwChem

@<TRIPOS>ATOM
      1 C           3.6482    0.6315   -0.3587 C.ar    1  LIG1      -0.16999999999999993
      2 C           3.5449    2.0375   -0.3922 C.ar    1  LIG1      -0.1900000000000004
      3 C           2.5140   -0.1733   -0.4039 C.ar    1  LIG1      -0.2400000000000002
      4 C           2.3026    2.6622   -0.4722 C.ar    1  LIG1      -0.1900000000000004
      5 C          -0.5266   -1.5295   -0.5219 C.3     1  LIG1       -0.41000000000000014
      6 C          -0.9282    1.0089   -0.6063 C.ar    1  LIG1       -0.009999999999999787
      7 C          -0.1013   -0.0863   -0.5482 C.ar    1  LIG1      0.019999999999999574
      8 C           1.2453    0.4241   -0.4830 C.ar    1  LIG1       0.04999999999999982
      9 C           1.1664    1.8493   -0.5162 C.ar    1  LIG1       0.29000000000000004
     10 C          -1.3391   -1.8805    0.7485 C.2     1  LIG1       0.3600000000000003
     11 C          -2.7984   -1.2667    0.8201 C.2     1  LIG1       0.4900000000000002
     12 N          -0.1693    2.1721   -0.6026 N.ar    1  LIG1      -0.6799999999999997
     13 O          -0.8636   -2.6133    1.5959 O.2     1  LIG1      -0.5099999999999998
     14 O          -3.3440   -1.2924    1.9365 O.co2   1  LIG1      -0.6400000000000006
     15 O          -3.2125   -0.8351   -0.2955 O.co2   1  LIG1      -0.6500000000000004
     16 H           4.6320    0.1719   -0.2928 H       1  LIG1          0.14
     17 H           4.4472    2.6438   -0.3533 H       1  LIG1       0.15000000000000002
     18 H           2.6023   -1.2564   -0.3704 H       1  LIG1       0.15000000000000002
     19 H           2.2184    3.7470   -0.4971 H       1  LIG1       0.15000000000000002
     20 H          -1.1711   -1.7411   -1.3804 H       1  LIG1       0.17000000000000004
     21 H           0.3523   -2.1834   -0.5492 H       1  LIG1       0.15000000000000002
     22 H          -2.0096    1.0091   -0.6264 H       1  LIG1       0.18000000000000005
     23 H          -0.5471    3.1047   -0.5617 H       1  LIG1           0.37
@<TRIPOS>BOND
     1    20     5    1
     2    22     6    1
     3     6    12   ar
     4     6     7   ar
     5    12    23    1
     6    12     9   ar
     7    21     5    1
     8     7     5    1
     9     7     8   ar
    10     5    10    1
    11     9     8   ar
    12     9     4   ar
    13    19     4    1
    14     8     3   ar
    15     4     2   ar
    16     3    18    1
    17     3     1   ar
    18     2     1   ar
    19     2    17    1
    20     1    16    1
    21    15    11   ar
    22    10    11    1
    23    10    13    2
    24    11    14   ar
