@<TRIPOS>MOLECULE
RTQMRTSPTLIIHM-KEOHHSTQSA-J	11085149	-2592.9824664580187
 55 58 0 0 0
SMALL
MULLIKEN NwChem

@<TRIPOS>ATOM
      1 C           5.6107   -1.4882    0.8416 C.3     1  LIG1       -0.03000000000000025
      2 C          -6.1038   -0.9013   -1.4003 C.3     1  LIG1       -0.03000000000000025
      3 C          -2.6259    1.0452   -1.0155 C.2     1  LIG1       0.20999999999999996
      4 C           1.1796   -0.7637    0.1679 C.2     1  LIG1          0.25
      5 C           5.1512   -0.9736   -0.5310 C.3     1  LIG1       0.1299999999999999
      6 C          -5.2485   -1.8268   -0.4885 C.3     1  LIG1       0.11000000000000032
      7 C          -0.4961    0.9781   -1.0202 C.2     1  LIG1       0.1299999999999999
      8 C           5.4651    0.4955   -0.7871 C.3     1  LIG1       0.03000000000000025
      9 C          -5.4515   -1.4702    0.9637 C.3     1  LIG1       0.07000000000000028
     10 C           4.1165    1.1866   -0.4978 C.3     1  LIG1       0.08999999999999986
     11 C          -4.4276   -0.3439    1.0823 C.3     1  LIG1       0.03000000000000025
     12 C           0.9008    1.1880   -1.2675 C.2     1  LIG1       0.5700000000000003
     13 C          -0.9043   -0.0593   -0.1928 C.3     1  LIG1       0.5199999999999996
     14 C           3.1487    0.1283   -1.0750 C.3     1  LIG1       0.2999999999999998
     15 C          -3.2207   -0.9719    0.3816 C.3     1  LIG1       0.28000000000000025
     16 N           1.4556    2.1296   -1.9751 N.pl3   1  LIG1      -0.7800000000000002
     17 N          -1.5806    1.6659   -1.5302 N.2     1  LIG1      -0.5800000000000001
     18 N          -0.0872   -0.9433    0.4489 N.2     1  LIG1      -0.5599999999999996
     19 N           1.7090    0.2056   -0.6512 N.pl3   1  LIG1        -0.54
     20 N          -2.2811    0.0020   -0.1781 N.pl3   1  LIG1         -0.5
     21 O           5.7372    0.6948   -2.1958 O.3     1  LIG1      -0.7100000000000009
     22 O          -5.0767   -2.5450    1.8565 O.3     1  LIG1      -0.7100000000000009
     23 O           4.0515    2.4518   -1.1407 O.3     1  LIG1      -0.7100000000000009
     24 O          -4.2879    0.1184    2.4136 O.3     1  LIG1      -0.7100000000000009
     25 O           7.5149   -1.1145    3.2980 O.3     1  LIG1      -0.7799999999999994
     26 O           9.3588   -0.9305    1.4521 O.2     1  LIG1      -0.7599999999999998
     27 O           7.3888    0.7903    1.5414 O.3     1  LIG1      -0.7699999999999996
     28 O          -6.4369    1.5235    1.3034 O.3     1  LIG1      -0.7799999999999994
     29 O          -8.2527   -0.0337    0.2958 O.3     1  LIG1      -0.7799999999999994
     30 O          -7.8472    2.3502   -0.7136 O.2     1  LIG1      -0.7400000000000002
     31 O           6.9827   -1.6696    0.7925 O.3     1  LIG1      -0.6500000000000004
     32 O          -6.0775    0.4606   -1.0971 O.3     1  LIG1      -0.6600000000000001
     33 O           3.6735   -1.1062   -0.6891 O.3     1  LIG1      -0.5700000000000003
     34 O          -3.8024   -1.6900   -0.7060 O.3     1  LIG1      -0.5500000000000007
     35 P           7.9381   -0.6069    1.9154 P.3     1  LIG1       0.9100000000000001
     36 P          -7.3188    1.1650    0.0765 P.3     1  LIG1       1.0299999999999994
     37 H           5.0629   -2.4394    1.0317 H       1  LIG1          0.12
     38 H           5.3017   -0.7779    1.6243 H       1  LIG1          0.12
     39 H          -7.1329   -1.2909   -1.3327 H       1  LIG1          0.12
     40 H          -5.7323   -1.0543   -2.4332 H       1  LIG1          0.12
     41 H          -3.6706    1.2619   -1.2158 H       1  LIG1       0.20999999999999996
     42 H           1.9235   -1.4318    0.5829 H       1  LIG1       0.21999999999999997
     43 H           5.6080   -1.5962   -1.3071 H       1  LIG1       0.15000000000000002
     44 H          -5.4889   -2.8765   -0.7137 H       1  LIG1          0.14
     45 H           6.2938    0.8255   -0.1317 H       1  LIG1       0.19999999999999996
     46 H          -6.4728   -1.1272    1.1566 H       1  LIG1       0.16000000000000003
     47 H           3.9590    1.2713    0.5866 H       1  LIG1       0.15000000000000002
     48 H          -4.7844    0.4770    0.4677 H       1  LIG1       0.19999999999999996
     49 H           3.1231    0.2443   -2.1687 H       1  LIG1       0.17000000000000004
     50 H          -2.6297   -1.6336    1.0237 H       1  LIG1       0.16000000000000003
     51 H           0.7109    2.7230   -2.3423 H       1  LIG1       0.32999999999999996
     52 H           5.4211    1.6078   -2.3343 H       1  LIG1       0.42000000000000004
     53 H          -4.7894   -2.0496    2.6466 H       1  LIG1       0.42000000000000004
     54 H           3.1356    2.5218   -1.5178 H       1  LIG1       0.43999999999999995
     55 H          -5.0665    0.7460    2.3924 H       1  LIG1       0.42000000000000004
@<TRIPOS>BOND
     1    40     2    1
     2    51    16    1
     3    52    21    1
     4    21     8    1
     5    49    14    1
     6    16    12    1
     7    17     7    1
     8    17     3    2
     9    54    23    1
    10     2    39    1
    11     2    32    1
    12     2     6    1
    13    43     5    1
    14    12     7    2
    15    12    19    1
    16    41     3    1
    17    23    10    1
    18    32    36    1
    19    14    33    1
    20    14    19    1
    21    14    10    1
    22     7    13    1
    23     3    20    1
    24     8     5    1
    25     8    10    1
    26     8    45    1
    27    44     6    1
    28    30    36    2
    29    34     6    1
    30    34    15    1
    31    33     5    1
    32    19     4    1
    33     5     1    1
    34    10    47    1
    35     6     9    1
    36    13    20    1
    37    13    18    1
    38    20    15    1
    39    36    29    1
    40    36    28    1
    41     4    18    2
    42     4    42    1
    43    15    50    1
    44    15    11    1
    45    48    11    1
    46    31     1    1
    47    31    35    1
    48     1    37    1
    49     1    38    1
    50     9    11    1
    51     9    46    1
    52     9    22    1
    53    11    24    1
    54    26    35    2
    55    27    35    1
    56    22    53    1
    57    35    25    1
    58    55    24    1
