@<TRIPOS>MOLECULE
RUSSPKPUXDSHNC-DDPQNLDTSA-N	6045199	-1128.8116020980035
 70 73 0 0 0
SMALL
MULLIKEN NwChem

@<TRIPOS>ATOM
      1 C           0.3250    0.0796   -5.8542 C.3     1  LIG1      -0.5300000000000002
      2 C          -1.3190    1.5518   -4.5972 C.3     1  LIG1      -0.5300000000000002
      3 C           4.1138   -0.1013   -1.9094 C.3     1  LIG1      -0.4800000000000004
      4 C          -1.7044   -3.2889    1.8038 C.3     1  LIG1         -0.5
      5 C           1.9565    1.1597    1.7903 C.3     1  LIG1         -0.5
      6 C           2.6093    1.7201   -4.4352 C.3     1  LIG1      -0.3200000000000003
      7 C           1.1175    1.8974   -4.2904 C.2     1  LIG1      -0.17999999999999972
      8 C           3.3605    1.9445   -3.1080 C.3     1  LIG1      -0.29000000000000004
      9 C          -3.0834    0.1362    1.4563 C.2     1  LIG1      -0.21999999999999975
     10 C          -1.9768    0.8587    0.8463 C.2     1  LIG1      -0.23000000000000043
     11 C           1.7348    2.8513   -0.6913 C.3     1  LIG1      -0.3099999999999996
     12 C           0.2763    2.4746   -0.3136 C.3     1  LIG1      -0.29000000000000004
     13 C          -2.1964   -1.1648    4.5164 C.3     1  LIG1      -0.3099999999999996
     14 C           0.8883   -1.5891    1.2171 C.3     1  LIG1      -0.2999999999999998
     15 C          -1.0686   -1.5064    3.5113 C.3     1  LIG1      -0.2999999999999998
     16 C           1.9181   -0.8796    0.3172 C.3     1  LIG1      -0.2999999999999998
     17 C          -4.0200   -1.7071    2.8399 C.3     1  LIG1      -0.3600000000000003
     18 C           0.1262    1.2075   -4.8725 C.2     1  LIG1      0.17999999999999972
     19 C           2.9636    0.9191   -2.0044 C.3     1  LIG1      -0.07000000000000028
     20 C          -2.9418   -1.0937    1.9827 C.2     1  LIG1      0.13999999999999968
     21 C          -3.5146   -1.9138    4.2986 C.3     1  LIG1       0.15000000000000036
     22 C          -0.7809    0.2819    0.6319 C.2     1  LIG1      0.15000000000000036
     23 C           2.6103    1.5477   -0.6191 C.3     1  LIG1      -0.09999999999999964
     24 C           0.3104    0.9506   -0.1558 C.3     1  LIG1      -0.16999999999999993
     25 C          -0.5916   -1.1998    0.9450 C.3     1  LIG1      -0.16999999999999993
     26 C          -1.5716   -1.7656    2.0410 C.3     1  LIG1      0.05999999999999961
     27 C           1.7449    0.6491    0.3442 C.3     1  LIG1      0.09999999999999964
     28 O          -3.3836   -3.3235    4.5239 O.3     1  LIG1      -0.6699999999999999
     29 H          -0.1169    0.3443   -6.8277 H       1  LIG1       0.16000000000000003
     30 H          -0.1892   -0.8316   -5.5184 H       1  LIG1       0.16000000000000003
     31 H           1.3764   -0.1653   -6.0242 H       1  LIG1       0.16000000000000003
     32 H          -1.8778    0.6737   -4.2494 H       1  LIG1       0.16000000000000003
     33 H          -1.4155    2.3352   -3.8390 H       1  LIG1       0.16000000000000003
     34 H          -1.8263    1.8990   -5.5092 H       1  LIG1       0.16000000000000003
     35 H           5.0224    0.3985   -1.5509 H       1  LIG1          0.14
     36 H           3.9129   -0.9417   -1.2470 H       1  LIG1       0.15000000000000002
     37 H           4.3355   -0.5103   -2.9029 H       1  LIG1          0.14
     38 H          -0.7178   -3.7628    1.7868 H       1  LIG1       0.15000000000000002
     39 H          -2.2831   -3.7680    2.5930 H       1  LIG1       0.17000000000000004
     40 H          -2.1906   -3.4849    0.8409 H       1  LIG1          0.14
     41 H           2.9329    0.8295    2.1657 H       1  LIG1          0.14
     42 H           1.9318    2.2508    1.8504 H       1  LIG1       0.15000000000000002
     43 H           1.1859    0.7879    2.4736 H       1  LIG1       0.16000000000000003
     44 H           2.8545    0.7247   -4.8243 H       1  LIG1       0.15000000000000002
     45 H           2.9931    2.4399   -5.1753 H       1  LIG1          0.14
     46 H           0.8252    2.7151   -3.6309 H       1  LIG1          0.13
     47 H           4.4386    1.8702   -3.3001 H       1  LIG1          0.13
     48 H           3.2017    2.9796   -2.7894 H       1  LIG1          0.14
     49 H          -4.0458    0.6424    1.5277 H       1  LIG1          0.13
     50 H          -2.1543    1.8836    0.5300 H       1  LIG1          0.13
     51 H           2.1293    3.6042   -0.0014 H       1  LIG1          0.14
     52 H           1.7604    3.3129   -1.6773 H       1  LIG1       0.15000000000000002
     53 H          -0.4439    2.7954   -1.0741 H       1  LIG1          0.14
     54 H          -0.0250    2.9442    0.6300 H       1  LIG1          0.14
     55 H          -2.4215   -0.0936    4.4476 H       1  LIG1          0.14
     56 H          -1.8408   -1.3377    5.5429 H       1  LIG1          0.14
     57 H           1.0041   -2.6685    1.0867 H       1  LIG1          0.14
     58 H           1.1427   -1.3882    2.2630 H       1  LIG1       0.15000000000000002
     59 H          -0.5026   -2.3789    3.8560 H       1  LIG1          0.14
     60 H          -0.3762   -0.6601    3.5212 H       1  LIG1       0.16000000000000003
     61 H           1.7995   -1.2440   -0.7114 H       1  LIG1          0.14
     62 H           2.9255   -1.1681    0.6466 H       1  LIG1          0.14
     63 H          -4.8923   -1.0458    2.8437 H       1  LIG1       0.16000000000000003
     64 H          -4.3590   -2.6812    2.4705 H       1  LIG1       0.15000000000000002
     65 H           2.0669    0.3966   -2.3670 H       1  LIG1          0.13
     66 H          -4.2674   -1.5126    4.9973 H       1  LIG1          0.13
     67 H           3.5665    1.7845   -0.1311 H       1  LIG1       0.10999999999999999
     68 H           0.2585    0.5191   -1.1709 H       1  LIG1          0.14
     69 H          -0.8703   -1.7123    0.0069 H       1  LIG1          0.14
     70 H          -2.9758   -3.4420    5.3948 H       1  LIG1       0.42000000000000004
@<TRIPOS>BOND
     1    29     1    1
     2    31     1    1
     3     1    30    1
     4     1    18    1
     5    34     2    1
     6    45     6    1
     7    18     2    1
     8    18     7    2
     9    44     6    1
    10     2    32    1
    11     2    33    1
    12     6     7    1
    13     6     8    1
    14     7    46    1
    15    47     8    1
    16     8    48    1
    17     8    19    1
    18    37     3    1
    19    65    19    1
    20    19     3    1
    21    19    23    1
    22     3    35    1
    23     3    36    1
    24    52    11    1
    25    68    24    1
    26    53    12    1
    27    61    16    1
    28    11    23    1
    29    11    12    1
    30    11    51    1
    31    23    67    1
    32    23    27    1
    33    12    24    1
    34    12    54    1
    35    24    27    1
    36    24    22    1
    37    69    25    1
    38    16    27    1
    39    16    62    1
    40    16    14    1
    41    27     5    1
    42    50    10    1
    43    22    10    2
    44    22    25    1
    45    40     4    1
    46    10     9    1
    47    25    14    1
    48    25    26    1
    49    57    14    1
    50    14    58    1
    51     9    49    1
    52     9    20    2
    53    38     4    1
    54     5    42    1
    55     5    41    1
    56     5    43    1
    57     4    26    1
    58     4    39    1
    59    20    26    1
    60    20    17    1
    61    26    15    1
    62    64    17    1
    63    17    63    1
    64    17    21    1
    65    15    60    1
    66    15    59    1
    67    15    13    1
    68    21    13    1
    69    21    28    1
    70    21    66    1
    71    55    13    1
    72    13    56    1
    73    28    70    1
