@<TRIPOS>MOLECULE
RWAZIEYJAWTKLB-YFKPBYRVSA-M	6045200	-966.9292555989591
 32 31 0 0 0
SMALL
MULLIKEN NwChem

@<TRIPOS>ATOM
      1 C           2.1845   -0.6038    0.2774 C.3     1  LIG1      -0.2400000000000002
      2 C           1.6378    0.5705   -0.5482 C.3     1  LIG1       -0.3700000000000001
      3 C          -0.9502    1.1412   -1.7382 C.3     1  LIG1         -0.25
      4 C          -2.8874    2.2155    0.1748 C.3     1  LIG1       -0.2599999999999998
      5 CA          1.0682   -1.5537    0.7477 C.3     1  LIG1       -0.07000000000000028
      6 C           1.1715    0.0770   -1.9691 C.2     1  LIG1       0.4900000000000002
      7 C          -1.8924    0.3467   -0.8230 C.2     1  LIG1       0.5300000000000002
      8 C          -1.8492    2.8718    1.0843 C.2     1  LIG1       0.5899999999999999
      9 C           1.5819   -2.8581    1.3270 C.2     1  LIG1       0.6100000000000003
     10 N           0.2226   -0.9158    1.7654 N.3     1  LIG1      -0.8099999999999996
     11 N          -0.0087    0.3927   -2.4983 N.am    1  LIG1      -0.6100000000000003
     12 N          -2.7699    0.7849    0.0086 N.2     1  LIG1      -0.5099999999999998
     13 O           2.0360   -0.6170   -2.5560 O.2     1  LIG1      -0.7100000000000009
     14 O          -1.7711   -0.9950   -0.9235 O.2     1  LIG1      -0.6099999999999994
     15 O          -1.7720    4.0682    1.2737 O.2     1  LIG1      -0.5199999999999996
     16 O          -1.0354    1.9791    1.6903 O.3     1  LIG1      -0.5600000000000005
     17 OXT         1.0891   -3.4590    2.2648 O.2     1  LIG1      -0.5299999999999994
     18 O           2.6435   -3.3693    0.6519 O.3     1  LIG1      -0.5899999999999999
     19 H           2.7252   -0.2508    1.1670 H       1  LIG1          0.13
     20 H           2.8740   -1.1488   -0.3710 H       1  LIG1          0.14
     21 H           0.8835    1.1182    0.0287 H       1  LIG1          0.13
     22 H           2.4640    1.2736   -0.7232 H       1  LIG1          0.14
     23 H          -0.5433    1.9509   -1.0945 H       1  LIG1       0.15000000000000002
     24 H          -1.6367    1.6759   -2.4262 H       1  LIG1       0.16000000000000003
     25 H          -2.8620    2.7943   -0.7611 H       1  LIG1       0.19999999999999996
     26 H          -3.8579    2.4409    0.6384 H       1  LIG1       0.19999999999999996
     27 HA          0.5100   -1.8562   -0.1584 H       1  LIG1       0.17000000000000004
     28 H1         -0.4116   -1.6136    2.1498 H       1  LIG1       0.31999999999999995
     29 H2         -0.3536   -0.2019    1.3286 H       1  LIG1          0.35
     30 H          -2.4113   -1.3416   -0.2728 H       1  LIG1       0.43000000000000005
     31 H          -0.3792    2.4852    2.2030 H       1  LIG1       0.44999999999999996
     32 H           2.8240   -4.2262    1.0804 H       1  LIG1       0.43999999999999995
@<TRIPOS>BOND
     1    13     6    2
     2    11     6   am
     3    11     3    1
     4    24     3    1
     5     6     2    1
     6     3    23    1
     7     3     7    1
     8    14     7    1
     9    14    30    1
    10     7    12    2
    11    25     4    1
    12    22     2    1
    13     2    21    1
    14     2     1    1
    15    20     1    1
    16    27     5    1
    17    12     4    1
    18     4    26    1
    19     4     8    1
    20     1     5    1
    21     1    19    1
    22    18    32    1
    23    18     9    1
    24     5     9    1
    25     5    10    1
    26     8    15    2
    27     8    16    1
    28     9    17    2
    29    29    10    1
    30    16    31    1
    31    10    28    1
