@<TRIPOS>MOLECULE
RWQNBRDOKXIBIV-UHFFFAOYSA-N	6045202	-454.03444150049086
 15 15 0 0 0
SMALL
MULLIKEN NwChem

@<TRIPOS>ATOM
      1 C           1.1694    2.3896   -0.3326 C.3     1  LIG1      -0.5800000000000001
      2 C           1.4882   -0.1405   -0.3772 C.ar    1  LIG1       -0.009999999999999787
      3 C           0.6758    0.9741   -0.1875 C.ar    1  LIG1       0.1200000000000001
      4 C          -0.6583    0.6651    0.1546 C.ar    1  LIG1       0.46999999999999975
      5 C          -0.2012   -1.5479    0.0703 C.ar    1  LIG1       0.6399999999999997
      6 N           1.0823   -1.4098   -0.2563 N.ar    1  LIG1         -0.5
      7 N          -1.1003   -0.5794    0.2841 N.ar    1  LIG1      -0.5499999999999998
      8 O          -1.5912    1.6178    0.3772 O.3     1  LIG1      -0.6300000000000008
      9 O          -0.6401   -2.8127    0.1989 O.3     1  LIG1      -0.6199999999999992
     10 H           1.0680    2.9626    0.6002 H       1  LIG1       0.18999999999999995
     11 H           0.6337    2.9376   -1.1210 H       1  LIG1       0.18999999999999995
     12 H           2.2305    2.4023   -0.6003 H       1  LIG1       0.18999999999999995
     13 H           2.5357   -0.0005   -0.6446 H       1  LIG1       0.18000000000000005
     14 H          -1.1916    2.4940    0.2618 H       1  LIG1          0.47
     15 H          -1.5817   -2.7483    0.4362 H       1  LIG1       0.44999999999999996
@<TRIPOS>BOND
     1    11     1    1
     2    13     2    1
     3    12     1    1
     4     2     6   ar
     5     2     3   ar
     6     1     3    1
     7     1    10    1
     8     6     5   ar
     9     3     4   ar
    10     5     9    1
    11     5     7   ar
    12     4     7   ar
    13     4     8    1
    14     9    15    1
    15    14     8    1
