@<TRIPOS>MOLECULE
RWSOTUBLDIXVET-UHFFFAOYSA-N	6045203	-399.3830490663808
 3 2 0 0 0
SMALL
MULLIKEN NwChem

@<TRIPOS>ATOM
      1 S          -0.1904    0.0799   -0.2572 S.3     1  LIG1      -0.3299999999999983
      2 H          -0.4514   -0.3130    1.0075 H       1  LIG1       0.17000000000000004
      3 H           1.1452    0.0219   -0.0705 H       1  LIG1       0.16000000000000003
@<TRIPOS>BOND
     1     1     3    1
     2     1     2    1
