@<TRIPOS>MOLECULE
RWSXRVCMGQZWBV-WDSKDSINSA-M	6045204	-1404.4251938932828
 36 35 0 0 0
SMALL
MULLIKEN NwChem

@<TRIPOS>ATOM
      1 CB          1.7677    2.1186    0.9490 C.3     1  CYS1      -0.2699999999999996
      2 CG          0.7089    1.3028    0.2043 C.3     1  CYS1       -0.40000000000000036
      3 CA         -2.1002   -2.8569   -2.9346 C.3     2  GLY2       -0.28000000000000025
      4 CB         -2.2741   -0.2143    0.1196 C.3     1  CYS1       -0.4500000000000002
      5 CA          2.0110    1.6191    2.4039 C.3     1  CYS1       -0.04999999999999982
      6 CA         -1.2348   -1.0140   -0.7093 C.3     1  CYS1           0.0
      7 CD          1.1075   -0.1592    0.0356 C.2     1  CYS1       0.5999999999999996
      8 C          -1.0416   -3.9226   -2.3837 C.2     2  GLY2       0.5300000000000002
      9 C          -1.2235   -0.7701   -2.2116 C.2     1  CYS1       0.5099999999999998
     10 C           2.9183    2.6286    3.0775 C.2     1  CYS1       0.5999999999999996
     11 N           0.8257    1.4496    3.2447 N.3     1  CYS1      -0.7699999999999996
     12 N          -1.6012   -1.5137   -3.1588 N.2     2  GLY2      -0.4800000000000004
     13 N           0.1372   -1.0951   -0.1887 N.am    1  CYS1      -0.6100000000000003
     14 OE1         2.2877   -0.4971    0.1502 O.2     1  CYS1      -0.5899999999999999
     15 O          -1.2964   -5.0886   -2.7277 O.co2   2  GLY2      -0.6500000000000004
     16 OXT        -0.1352   -3.4766   -1.6276 O.co2   2  GLY2      -0.6300000000000008
     17 O          -0.6509    0.4526   -2.5335 O.2     1  CYS1      -0.6199999999999992
     18 OXT         2.5468    3.5805    3.7329 O.2     1  CYS1      -0.5199999999999996
     19 O           4.2301    2.4075    2.8061 O.3     1  CYS1      -0.5899999999999999
     20 SG         -2.7396    1.5373   -0.3190 S.3     1  CYS1      -0.19000000000000128
     21 HB1         1.4426    3.1679    0.9840 H       1  CYS1       0.15000000000000002
     22 HB2         2.7177    2.0724    0.4074 H       1  CYS1       0.16000000000000003
     23 HG1        -0.2582    1.3975    0.7016 H       1  CYS1       0.18999999999999995
     24 HG2         0.5580    1.7160   -0.7991 H       1  CYS1       0.19999999999999996
     25 HA1        -2.9377   -2.8641   -2.2163 H       2  GLY2       0.17000000000000004
     26 HA2        -2.4936   -3.2423   -3.8775 H       2  GLY2          0.14
     27 HB1        -3.2139   -0.7697    0.0688 H       1  CYS1       0.21999999999999997
     28 HB2        -1.9459   -0.2179    1.1636 H       1  CYS1       0.21999999999999997
     29 HA          2.5288    0.6596    2.3351 H       1  CYS1       0.17000000000000004
     30 HA         -1.5550   -2.0502   -0.6079 H       1  CYS1       0.19999999999999996
     31 H1          0.2027    0.7726    2.8098 H       1  CYS1       0.33999999999999997
     32 H2          0.3236    2.3350    3.2994 H       1  CYS1       0.32999999999999996
     33 H           0.5072   -2.0066   -0.4816 H       1  CYS1          0.36
     34 H          -0.6244    0.4411   -3.5090 H       1  CYS1       0.43000000000000005
     35 H           4.7129    3.1448    3.2244 H       1  CYS1       0.43999999999999995
     36 HG         -1.9630    1.6387   -1.4177 H       1  CYS1       0.16000000000000003
@<TRIPOS>BOND
     1    26     3    1
     2    34    17    1
     3    12     3    1
     4    12     9    2
     5     3     8    1
     6     3    25    1
     7    15     8   ar
     8    17     9    1
     9     8    16   ar
    10     9     6    1
    11    36    20    1
    12    24     2    1
    13     6    30    1
    14     6    13    1
    15     6     4    1
    16    33    13    1
    17    20     4    1
    18    13     7   am
    19     7    14    2
    20     7     2    1
    21    27     4    1
    22     4    28    1
    23     2    23    1
    24     2     1    1
    25    22     1    1
    26     1    21    1
    27     1     5    1
    28    29     5    1
    29     5    10    1
    30     5    11    1
    31    19    10    1
    32    19    35    1
    33    31    11    1
    34    10    18    2
    35    11    32    1
