@<TRIPOS>MOLECULE
RWZYAGGXGHYGMB-UHFFFAOYSA-M	6045205	-475.63014769705933
 16 16 0 0 0
SMALL
MULLIKEN NwChem

@<TRIPOS>ATOM
      1 C          -2.1678   -1.0071    0.0777 C.ar    1  LIG1      -0.17999999999999972
      2 C          -1.4124   -2.1831    0.0939 C.ar    1  LIG1      -0.16999999999999993
      3 C          -1.5021    0.2208    0.0468 C.ar    1  LIG1      -0.21999999999999975
      4 C          -0.0213   -2.1182    0.0952 C.ar    1  LIG1      -0.20999999999999996
      5 C          -0.1086    0.3225    0.0338 C.ar    1  LIG1           0.0
      6 C           0.6528   -0.8788    0.0743 C.ar    1  LIG1       0.20999999999999996
      7 C           0.5276    1.7334   -0.0946 C.2     1  LIG1           0.5
      8 N           2.0432   -0.8289    0.1397 N.pl3   1  LIG1      -0.8399999999999999
      9 O           1.7877    1.7749   -0.2721 O.co2   1  LIG1      -0.6699999999999999
     10 O          -0.2616    2.7007   -0.0346 O.co2   1  LIG1      -0.6500000000000004
     11 H          -3.2560   -1.0486    0.0819 H       1  LIG1          0.13
     12 H          -1.9047   -3.1555    0.1096 H       1  LIG1          0.14
     13 H          -2.0454    1.1615    0.0165 H       1  LIG1          0.13
     14 H           0.5699   -3.0345    0.1225 H       1  LIG1          0.14
     15 H           2.3475    0.1311   -0.1079 H       1  LIG1          0.35
     16 H           2.5084   -1.5821   -0.3545 H       1  LIG1       0.33999999999999997
@<TRIPOS>BOND
     1    16     8    1
     2     9     7   ar
     3    15     8    1
     4     7    10   ar
     5     7     5    1
     6    13     3    1
     7     5     3   ar
     8     5     6   ar
     9     3     1   ar
    10     6     4   ar
    11     6     8    1
    12     1    11    1
    13     1     2   ar
    14     2     4   ar
    15     2    12    1
    16     4    14    1
