@<TRIPOS>MOLECULE
RXKJFZQQPQGTFL-UHFFFAOYSA-N	6045207	-343.5147558763061
 12 11 0 0 0
SMALL
MULLIKEN NwChem

@<TRIPOS>ATOM
      1 C           0.9667   -1.1419   -0.2476 C.3     1  LIG1       -0.1200000000000001
      2 C          -0.8568    0.7238   -0.4511 C.3     1  LIG1       -0.08999999999999986
      3 C           0.0533   -0.1228    0.4246 C.2     1  LIG1       0.40000000000000036
      4 O           1.0320   -1.0220   -1.6588 O.3     1  LIG1      -0.6500000000000004
      5 O          -1.6532    1.5814    0.3175 O.3     1  LIG1      -0.6699999999999999
      6 O           0.0243   -0.0030    1.6375 O.2     1  LIG1         -0.5
      7 H           0.5503   -2.1347   -0.0368 H       1  LIG1       0.20999999999999996
      8 H           1.9511   -1.1012    0.2412 H       1  LIG1       0.18999999999999995
      9 H          -0.2291    1.2895   -1.1603 H       1  LIG1       0.18000000000000005
     10 H          -1.4633    0.0440   -1.0721 H       1  LIG1       0.18000000000000005
     11 H           1.6152   -0.2788   -1.8752 H       1  LIG1       0.43999999999999995
     12 H          -1.4167    1.3940    1.2469 H       1  LIG1       0.42000000000000004
@<TRIPOS>BOND
     1    11     4    1
     2     4     1    1
     3     9     2    1
     4    10     2    1
     5     2     5    1
     6     2     3    1
     7     1     7    1
     8     1     8    1
     9     1     3    1
    10     5    12    1
    11     3     6    2
