@<TRIPOS>MOLECULE
RXWVHRYZTWZATH-XSLAGTTESA-J	11085147	-2520.491155803009
 83 85 0 0 0
SMALL
MULLIKEN NwChem

@<TRIPOS>ATOM
      1 C           3.9629   -1.3807    1.5256 C.ar    1  LIG1      -0.1900000000000004
      2 C           2.8885    0.5300    0.5572 C.ar    1  LIG1      -0.1900000000000004
      3 C           4.9098   -1.3944    0.5091 C.ar    1  LIG1      -0.20999999999999996
      4 C           3.8382    0.5340   -0.4584 C.ar    1  LIG1      -0.23000000000000043
      5 C          -5.5186    0.7503   -0.5725 C.3     1  LIG1      -0.2699999999999996
      6 C          -1.5627    0.2937    1.9234 C.3     1  LIG1      -0.3099999999999996
      7 CB        -11.3237   -1.2117   -1.2144 C.3     1  LIG1      -0.2400000000000002
      8 C          -7.0334    1.0060   -0.4816 C.3     1  LIG1       -0.33999999999999986
      9 C          -2.3959    0.0672    0.6395 C.3     1  LIG1       -0.33999999999999986
     10 CG        -11.1628   -2.2120   -0.0635 C.3     1  LIG1       -0.3600000000000003
     11 C           6.9698   -1.1869   -1.7211 C.3     1  LIG1       -0.16000000000000014
     12 C           8.2469   -0.3367    0.3195 C.3     1  LIG1       -0.1299999999999999
     13 C           2.9214   -0.4402    1.5739 C.ar    1  LIG1       0.05999999999999961
     14 C           4.8646   -0.4306   -0.5185 C.ar    1  LIG1       0.3700000000000001
     15 C           8.2537   -0.5083   -1.2093 C.3     1  LIG1       0.03000000000000025
     16 CA         -4.6550    1.9203   -0.0469 C.3     1  LIG1       -0.08999999999999986
     17 CA        -10.0113   -0.8264   -1.9209 C.3     1  LIG1       -0.08000000000000007
     18 CA         -0.0465    0.6050    1.7223 C.3     1  LIG1       -0.07000000000000028
     19 C          -7.8967    0.1125   -1.4015 C.2     1  LIG1       0.5099999999999998
     20 C          -2.3328    1.2536   -0.3383 C.2     1  LIG1           0.5
     21 CD        -12.5029   -2.6837    0.6140 C.2     1  LIG1       0.5199999999999996
     22 C          10.6221   -0.8235   -1.0296 C.ar    1  LIG1       0.13999999999999968
     23 C          10.6394   -0.0673    0.0892 C.ar    1  LIG1       0.46999999999999975
     24 C           2.0292   -0.5087    2.7843 C.2     1  LIG1           0.5
     25 C          11.8813   -1.0617   -1.7690 C.ar    1  LIG1       0.4800000000000004
     26 C          -4.6402    2.0698    1.4846 C.2     1  LIG1       0.6100000000000003
     27 C         -10.2900   -0.1411   -3.2848 C.2     1  LIG1       0.5800000000000001
     28 C           0.2240    2.1328    1.8526 C.2     1  LIG1       0.5999999999999996
     29 C          13.0642    0.1339   -0.1015 C.ar    1  LIG1       0.5599999999999996
     30 N          14.1049    0.7139    0.4429 N.pl3   1  LIG1      -0.8300000000000001
     31 N           5.7490   -0.4124   -1.5897 N.pl3   1  LIG1      -0.6699999999999999
     32 N           9.4691    0.3539    0.7603 N.pl3   1  LIG1      -0.6699999999999999
     33 N           9.4008   -1.3341   -1.5578 N.pl3   1  LIG1      -0.7000000000000002
     34 N          -3.3031    2.0813   -0.6150 N.am    1  LIG1      -0.5899999999999999
     35 N          -9.1526    0.0057   -1.0560 N.am    1  LIG1      -0.5800000000000001
     36 N           0.7232   -0.1096    2.7375 N.am    1  LIG1      -0.5999999999999996
     37 N          11.8508    0.3340    0.6207 N.ar    1  LIG1      -0.7000000000000002
     38 N          13.0507   -0.6017   -1.2450 N.ar    1  LIG1      -0.6699999999999999
     39 O          -7.3043   -0.3652   -2.4547 O.2     1  LIG1      -0.7200000000000006
     40 O          -1.1403    1.4153   -0.8401 O.2     1  LIG1      -0.7100000000000009
     41 OE1       -13.4667   -1.8696    0.5950 O.co2   1  LIG1      -0.6899999999999995
     42 OE2       -12.4697   -3.8347    1.1367 O.co2   1  LIG1      -0.6999999999999993
     43 O           2.4755   -0.9964    3.8329 O.2     1  LIG1      -0.5999999999999996
     44 O          11.8028   -1.6705   -2.8642 O.2     1  LIG1      -0.6899999999999995
     45 OXT        -5.4028    1.5640    2.2764 O.2     1  LIG1      -0.5299999999999994
     46 O          -3.6640    2.9210    1.9233 O.3     1  LIG1      -0.6099999999999994
     47 OXT       -11.3962    0.1989   -3.6853 O.2     1  LIG1      -0.5600000000000005
     48 O          -9.2058    0.0456   -4.0512 O.3     1  LIG1      -0.6600000000000001
     49 OXT         0.6253    2.5968    2.9099 O.2     1  LIG1      -0.5500000000000007
     50 O          -0.0008    2.8642    0.7803 O.3     1  LIG1      -0.6500000000000004
     51 H           4.0252   -2.1053    2.3309 H       1  LIG1       0.15000000000000002
     52 H           2.1417    1.3137    0.5449 H       1  LIG1       0.15000000000000002
     53 H           5.6931   -2.1451    0.5237 H       1  LIG1       0.16000000000000003
     54 H           3.7822    1.2996   -1.2303 H       1  LIG1       0.16000000000000003
     55 H          -5.2666   -0.1824   -0.0532 H       1  LIG1       0.15000000000000002
     56 H          -5.2653    0.6021   -1.6263 H       1  LIG1          0.14
     57 H          -2.0254    1.0894    2.5183 H       1  LIG1       0.17000000000000004
     58 H          -1.6249   -0.6248    2.5210 H       1  LIG1       0.17000000000000004
     59 HB1       -12.0081   -1.6315   -1.9639 H       1  LIG1          0.12
     60 HB2       -11.8169   -0.3092   -0.8399 H       1  LIG1       0.10999999999999999
     61 H          -7.3883    0.9319    0.5495 H       1  LIG1          0.14
     62 H          -7.2227    2.0462   -0.7977 H       1  LIG1       0.15000000000000002
     63 H          -1.9948   -0.8046    0.1074 H       1  LIG1       0.17000000000000004
     64 H          -3.4162   -0.1769    0.9462 H       1  LIG1       0.16000000000000003
     65 HG1       -10.6257   -3.1094   -0.4077 H       1  LIG1       0.10999999999999999
     66 HG2       -10.5207   -1.7599    0.7078 H       1  LIG1          0.13
     67 H           7.1140   -1.4109   -2.7879 H       1  LIG1       0.17000000000000004
     68 H           6.8471   -2.1541   -1.2266 H       1  LIG1       0.18000000000000005
     69 H           8.1567   -1.3404    0.7655 H       1  LIG1       0.15000000000000002
     70 H           7.3769    0.2504    0.6299 H       1  LIG1       0.16000000000000003
     71 H           8.3122    0.5080   -1.6513 H       1  LIG1          0.13
     72 HA         -5.1854    2.8338   -0.3681 H       1  LIG1       0.18000000000000005
     73 HA         -9.4696   -1.7555   -2.1922 H       1  LIG1          0.13
     74 HA          0.2462    0.2547    0.7325 H       1  LIG1       0.18999999999999995
     75 H          14.8895    0.4949   -0.1772 H       1  LIG1          0.26
     76 H           5.7232    0.4352   -2.1398 H       1  LIG1          0.36
     77 H           9.5759    0.2931    1.7709 H       1  LIG1          0.35
     78 H           9.5422   -1.4667   -2.5593 H       1  LIG1       0.31999999999999995
     79 H           0.3420   -0.0423    3.6742 H       1  LIG1          0.35
     80 H          11.8665    1.1388    1.2333 H       1  LIG1          0.35
     81 H          -3.1080    3.1071    1.1319 H       1  LIG1       0.43999999999999995
     82 H          -8.3635   -0.2057   -3.4886 H       1  LIG1       0.44999999999999996
     83 H          -0.4624    2.2770   -0.0058 H       1  LIG1           0.47
@<TRIPOS>BOND
     1    48    82    1
     2    48    27    1
     3    47    27    2
     4    27    17    1
     5    44    25    2
     6    67    11    1
     7    78    33    1
     8    39    19    2
     9    73    17    1
    10    76    31    1
    11    59     7    1
    12    17     7    1
    13    17    35    1
    14    25    38   ar
    15    25    22   ar
    16    11    31    1
    17    11    68    1
    18    11    15    1
    19    71    15    1
    20    56     5    1
    21    31    14    1
    22    33    15    1
    23    33    22    1
    24    19    35   am
    25    19     8    1
    26    38    29   ar
    27    54     4    1
    28     7    60    1
    29     7    10    1
    30    15    12    1
    31    22    23   ar
    32    40    20    2
    33    62     8    1
    34    34    20   am
    35    34    16    1
    36     5     8    1
    37     5    55    1
    38     5    16    1
    39    14     4   ar
    40    14     3   ar
    41     8    61    1
    42     4     2   ar
    43    65    10    1
    44    72    16    1
    45    20     9    1
    46    75    30    1
    47    29    30    1
    48    29    37   ar
    49    10    21    1
    50    10    66    1
    51    16    26    1
    52    83    50    1
    53    23    37   ar
    54    23    32    1
    55    63     9    1
    56    12    70    1
    57    12    32    1
    58    12    69    1
    59     3    53    1
    60     3     1   ar
    61    52     2    1
    62     2    13   ar
    63    41    21   ar
    64    21    42   ar
    65    37    80    1
    66     9    64    1
    67     9     6    1
    68    74    18    1
    69    32    77    1
    70    50    28    1
    71    81    46    1
    72    26    46    1
    73    26    45    2
    74     1    13   ar
    75     1    51    1
    76    13    24    1
    77    18    28    1
    78    18     6    1
    79    18    36    1
    80    28    49    2
    81     6    57    1
    82     6    58    1
    83    36    24   am
    84    36    79    1
    85    24    43    2
