@<TRIPOS>MOLECULE
RYJJOMQPAAUFBF-TXICZTDVSA-L	11085146	-3033.401363111105
 23 22 0 0 0
SMALL
MULLIKEN NwChem

@<TRIPOS>ATOM
      1 C          -3.5915    1.3857    0.1745 C.3     1  LIG1       -0.040000000000000036
      2 C          -2.5771    0.3082   -0.2157 C.3     1  LIG1       0.16000000000000014
      3 C          -1.9895   -0.4008    1.0185 C.3     1  LIG1       0.040000000000000036
      4 C          -0.6951   -0.9611    0.4667 C.3     1  LIG1       0.04999999999999982
      5 C          -0.1667    0.2722   -0.3093 C.3     1  LIG1       0.40000000000000036
      6 AS          2.6069    0.1712   -0.2907 As      2  LIG2       0.8999999999999986
      7 O          -4.7266    0.8325    0.8592 O.3     1  LIG1       -0.6999999999999993
      8 O          -2.9476   -1.3799    1.5253 O.3     1  LIG1       -0.6699999999999999
      9 O          -1.0008   -2.0482   -0.4167 O.3     1  LIG1       -0.6899999999999995
     10 O           2.3719   -1.0054    0.8863 O.3     2  LIG2         -0.75
     11 O           2.5300    1.7537    0.2471 O.3     2  LIG2       -0.7599999999999998
     12 O           3.6077   -0.1915   -1.5709 O.3     2  LIG2         -0.75
     13 O          -1.4864    0.8488   -0.9034 O.3     1  LIG1       -0.6099999999999994
     14 O           0.7495    0.0543   -1.2302 O.3     1  LIG1       -0.6600000000000001
     15 H          -3.0800    2.1398    0.7968 H       1  LIG1          0.13
     16 H          -3.9646    1.8977   -0.7219 H       1  LIG1       0.15000000000000002
     17 H          -3.1100   -0.4587   -0.8129 H       1  LIG1          0.12
     18 H          -1.7813    0.3346    1.8099 H       1  LIG1       0.16000000000000003
     19 H           0.0816   -1.2400    1.1915 H       1  LIG1       0.15000000000000002
     20 H           0.1372    1.0374    0.4309 H       1  LIG1       0.08999999999999997
     21 H          -4.3940    0.0371    1.3139 H       1  LIG1       0.43000000000000005
     22 H          -2.5437   -1.7486    2.3273 H       1  LIG1       0.43999999999999995
     23 H          -1.7350   -2.5146    0.0163 H       1  LIG1       0.42000000000000004
@<TRIPOS>BOND
     1    12     6    1
     2    14     5    1
     3    13     5    1
     4    13     2    1
     5    17     2    1
     6    16     1    1
     7     9    23    1
     8     9     4    1
     9     5    20    1
    10     5     4    1
    11     6    11    1
    12     6    10    1
    13     2     1    1
    14     2     3    1
    15     1    15    1
    16     1     7    1
    17     4     3    1
    18     4    19    1
    19     7    21    1
    20     3     8    1
    21     3    18    1
    22     8    22    1
