@<TRIPOS>MOLECULE
RZRNAYUHWVFMIP-QJRAZLAKSA-N	6045210	-1124.7269673178887
 65 64 0 0 0
SMALL
MULLIKEN NwChem

@<TRIPOS>ATOM
      1 C          -5.5314    0.5975   -8.8498 C.3     1  LIG1      -0.45999999999999996
      2 C          -4.5636    1.5594   -8.1513 C.3     1  LIG1        -0.25
      3 C          -4.9396    1.8814   -6.6948 C.3     1  LIG1      -0.2599999999999998
      4 C          -4.9915    0.6717   -5.7430 C.3     1  LIG1      -0.2699999999999996
      5 C          -3.6894   -0.1449   -5.6582 C.3     1  LIG1      -0.2699999999999996
      6 C          -2.4363    0.6565   -5.2607 C.3     1  LIG1      -0.2699999999999996
      7 C          -2.5428    1.4195   -3.9295 C.3     1  LIG1      -0.2599999999999998
      8 C          -2.8341    0.5439   -2.6890 C.3     1  LIG1      -0.3200000000000003
      9 C          -1.8072   -0.5406   -2.4675 C.2     1  LIG1      -0.1200000000000001
     10 C          -0.7743   -0.4909   -1.6178 C.2     1  LIG1      -0.1299999999999999
     11 C          -0.4552    0.6464   -0.6762 C.3     1  LIG1      -0.3200000000000003
     12 C          -1.1397    0.5071    0.7032 C.3     1  LIG1      -0.2599999999999998
     13 C          -0.8167   -0.7951    1.4554 C.3     1  LIG1      -0.2699999999999996
     14 C           0.6796   -1.0469    1.7166 C.3     1  LIG1      -0.2699999999999996
     15 C           1.4129    0.0742    2.4734 C.3     1  LIG1      -0.28000000000000025
     16 C           0.8342    0.4299    3.8520 C.3     1  LIG1      -0.29000000000000004
     17 C           0.8206   -0.7078    4.8997 C.3     1  LIG1       -0.34999999999999964
     18 C           5.1198    0.4696    5.2356 C.3     1  LIG1       -0.04999999999999982
     19 C           4.3299   -1.9751    4.9720 C.3     1  LIG1       -0.08999999999999986
     20 C           5.3249   -0.8930    4.5659 C.3     1  LIG1       0.08000000000000007
     21 C           2.1869   -1.0196    5.4704 C.2     1  LIG1       0.6299999999999999
     22 O           6.1304    1.3692    4.8214 O.3     1  LIG1      -0.6699999999999999
     23 O           5.3546   -0.7204    3.1432 O.3     1  LIG1      -0.6799999999999997
     24 O           2.5490   -0.7493    6.5950 O.2     1  LIG1      -0.5199999999999996
     25 O           2.9852   -1.6342    4.5527 O.3     1  LIG1      -0.47000000000000064
     26 H          -5.5163   -0.3978   -8.3886 H       1  LIG1       0.15000000000000002
     27 H          -5.2704    0.4707   -9.9080 H       1  LIG1          0.14
     28 H          -6.5639    0.9710   -8.7999 H       1  LIG1          0.14
     29 H          -3.5465    1.1409   -8.1880 H       1  LIG1          0.14
     30 H          -4.5191    2.5012   -8.7145 H       1  LIG1          0.13
     31 H          -4.2245    2.6179   -6.3027 H       1  LIG1          0.14
     32 H          -5.9205    2.3787   -6.6853 H       1  LIG1          0.13
     33 H          -5.2632    1.0301   -4.7405 H       1  LIG1          0.14
     34 H          -5.8053    0.0006   -6.0484 H       1  LIG1          0.13
     35 H          -3.8390   -0.9659   -4.9433 H       1  LIG1          0.14
     36 H          -3.5000   -0.6283   -6.6256 H       1  LIG1          0.14
     37 H          -1.5777   -0.0270   -5.2184 H       1  LIG1          0.13
     38 H          -2.2020    1.3814   -6.0511 H       1  LIG1          0.14
     39 H          -1.6003    1.9569   -3.7577 H       1  LIG1          0.13
     40 H          -3.3255    2.1864   -4.0079 H       1  LIG1          0.14
     41 H          -2.8993    1.1979   -1.8116 H       1  LIG1       0.15000000000000002
     42 H          -3.8246    0.0796   -2.7924 H       1  LIG1       0.15000000000000002
     43 H          -1.9193   -1.4294   -3.0889 H       1  LIG1          0.13
     44 H          -0.1121   -1.3555   -1.5644 H       1  LIG1          0.13
     45 H           0.6323    0.7050   -0.5405 H       1  LIG1       0.15000000000000002
     46 H          -0.7559    1.6041   -1.1174 H       1  LIG1       0.15000000000000002
     47 H          -0.8693    1.3748    1.3216 H       1  LIG1          0.14
     48 H          -2.2265    0.5614    0.5557 H       1  LIG1          0.14
     49 H          -1.3655   -0.7913    2.4074 H       1  LIG1          0.14
     50 H          -1.2151   -1.6433    0.8834 H       1  LIG1          0.13
     51 H           0.7886   -1.9913    2.2649 H       1  LIG1          0.14
     52 H           1.1919   -1.2038    0.7580 H       1  LIG1          0.14
     53 H           2.4632   -0.2188    2.5860 H       1  LIG1          0.14
     54 H           1.4150    0.9861    1.8629 H       1  LIG1       0.15000000000000002
     55 H           1.3829    1.2848    4.2676 H       1  LIG1       0.16000000000000003
     56 H          -0.2006    0.7702    3.7280 H       1  LIG1       0.16000000000000003
     57 H           0.1989   -0.4172    5.7507 H       1  LIG1       0.17000000000000004
     58 H           0.3984   -1.6190    4.4629 H       1  LIG1       0.18999999999999995
     59 H           4.1141    0.8534    4.9911 H       1  LIG1          0.14
     60 H           5.1765    0.3746    6.3246 H       1  LIG1       0.16000000000000003
     61 H           4.3479   -2.1430    6.0514 H       1  LIG1       0.18000000000000005
     62 H           4.5617   -2.9015    4.4410 H       1  LIG1       0.18000000000000005
     63 H           6.3301   -1.2461    4.8280 H       1  LIG1       0.17000000000000004
     64 H           6.2075    1.2436    3.8599 H       1  LIG1       0.42000000000000004
     65 H           4.4388   -0.5569    2.8603 H       1  LIG1       0.44999999999999996
@<TRIPOS>BOND
     1    27     1    1
     2     1    28    1
     3     1    26    1
     4     1     2    1
     5    30     2    1
     6    29     2    1
     7     2     3    1
     8     3    32    1
     9     3    31    1
    10     3     4    1
    11    36     5    1
    12    38     6    1
    13    34     4    1
    14     4     5    1
    15     4    33    1
    16     5     6    1
    17     5    35    1
    18     6    37    1
    19     6     7    1
    20    40     7    1
    21     7    39    1
    22     7     8    1
    23    43     9    1
    24    42     8    1
    25     8     9    1
    26     8    41    1
    27     9    10    2
    28    10    44    1
    29    10    11    1
    30    46    11    1
    31    11    45    1
    32    11    12    1
    33    48    12    1
    34    12    47    1
    35    12    13    1
    36    52    14    1
    37    50    13    1
    38    13    14    1
    39    13    49    1
    40    14    51    1
    41    14    15    1
    42    54    15    1
    43    15    53    1
    44    15    16    1
    45    65    23    1
    46    23    20    1
    47    56    16    1
    48    16    55    1
    49    16    17    1
    50    64    22    1
    51    62    19    1
    52    58    17    1
    53    25    19    1
    54    25    21    1
    55    20    63    1
    56    20    19    1
    57    20    18    1
    58    22    18    1
    59    17    21    1
    60    17    57    1
    61    19    61    1
    62    59    18    1
    63    18    60    1
    64    21    24    2
