@<TRIPOS>MOLECULE
RZSXSHNNQBIPTL-ZSBATXSLSA-N	6045211	-1130.0723721717495
 72 75 0 0 0
SMALL
MULLIKEN NwChem

@<TRIPOS>ATOM
      1 C           3.2357   -1.5895   -6.3465 C.3     1  LIG1      -0.45999999999999996
      2 C           1.1603   -0.2406   -6.8472 C.3     1  LIG1      -0.45999999999999996
      3 C          -0.7025   -3.2151   -2.5614 C.3     1  LIG1      -0.4800000000000004
      4 C          -1.0103    0.3505    4.5608 C.3     1  LIG1      -0.4900000000000002
      5 C          -0.9942   -0.0351   -1.4018 C.3     1  LIG1         -0.5
      6 C           1.4311   -3.5442   -4.7214 C.3     1  LIG1      -0.28000000000000025
      7 C           0.9273   -2.4804   -5.7127 C.3     1  LIG1      -0.2599999999999998
      8 C           1.7119   -3.0247   -3.2995 C.3     1  LIG1      -0.2699999999999996
      9 C           0.8946    2.5415    3.3874 C.3     1  LIG1      -0.28000000000000025
     10 C           1.3110    1.9635    2.0310 C.3     1  LIG1      -0.33999999999999986
     11 C           2.3262   -1.1831   -1.0690 C.3     1  LIG1      -0.29000000000000004
     12 C           2.2788   -0.4610    0.2784 C.3     1  LIG1      -0.29000000000000004
     13 C          -3.4082    2.3284    4.3929 C.3     1  LIG1       -0.3600000000000003
     14 C          -1.6250   -0.5848    1.5352 C.3     1  LIG1      -0.3600000000000003
     15 C          -2.8298    1.5053    3.2218 C.3     1  LIG1      -0.29000000000000004
     16 C          -0.8369   -1.5343    0.6361 C.3     1  LIG1      -0.2999999999999998
     17 C          -1.1163    3.4525    4.6789 C.3     1  LIG1       -0.3600000000000003
     18 C           1.8178   -1.2332   -5.8779 C.3     1  LIG1      -0.07000000000000028
     19 C           0.5348   -2.3015   -2.6078 C.3     1  LIG1      -0.08000000000000007
     20 C          -0.6266    2.6538    3.4558 C.3     1  LIG1      -0.11000000000000032
     21 C          -2.6293    3.6073    4.6657 C.2     1  LIG1       0.46999999999999975
     22 C           0.4050    0.8627    1.5092 C.2     1  LIG1      0.08999999999999986
     23 C           0.9270   -1.8249   -1.1897 C.3     1  LIG1      -0.09999999999999964
     24 C           0.9050    0.2364    0.2207 C.3     1  LIG1      -0.17999999999999972
     25 C          -0.7712    0.5415    2.0839 C.2     1  LIG1      0.08000000000000007
     26 C          -1.3002    1.2571    3.3372 C.3     1  LIG1      0.040000000000000036
     27 C          -0.0452   -0.8014   -0.4630 C.3     1  LIG1      0.1200000000000001
     28 O          -3.1785    4.6771    4.8497 O.2     1  LIG1      -0.5199999999999996
     29 H           3.2032   -2.1324   -7.3006 H       1  LIG1          0.14
     30 H           3.7611   -2.2203   -5.6211 H       1  LIG1       0.15000000000000002
     31 H           3.8383   -0.6860   -6.4980 H       1  LIG1          0.14
     32 H           1.0531   -0.6851   -7.8454 H       1  LIG1          0.14
     33 H           0.1601    0.0491   -6.5031 H       1  LIG1          0.14
     34 H           1.7588    0.6721   -6.9519 H       1  LIG1          0.14
     35 H          -0.4568   -4.1631   -2.0649 H       1  LIG1          0.14
     36 H          -1.5296   -2.7617   -2.0097 H       1  LIG1       0.16000000000000003
     37 H          -1.0716   -3.4509   -3.5646 H       1  LIG1       0.15000000000000002
     38 H          -1.5221   -0.6116    4.4501 H       1  LIG1       0.16000000000000003
     39 H           0.0588    0.1413    4.6534 H       1  LIG1       0.15000000000000002
     40 H          -1.3502    0.7886    5.5045 H       1  LIG1       0.16000000000000003
     41 H          -1.4850    0.7785   -0.8563 H       1  LIG1       0.15000000000000002
     42 H          -0.4440    0.4232   -2.2310 H       1  LIG1       0.15000000000000002
     43 H          -1.7767   -0.6705   -1.8283 H       1  LIG1          0.14
     44 H           0.6972   -4.3590   -4.6837 H       1  LIG1          0.13
     45 H           2.3529   -3.9978   -5.1082 H       1  LIG1          0.13
     46 H          -0.0765   -2.1512   -5.4105 H       1  LIG1          0.13
     47 H           0.8039   -2.9516   -6.6992 H       1  LIG1          0.12
     48 H           2.0255   -3.8709   -2.6701 H       1  LIG1          0.12
     49 H           2.5725   -2.3482   -3.3448 H       1  LIG1       0.15000000000000002
     50 H           1.3566    3.5258    3.5341 H       1  LIG1          0.14
     51 H           1.2587    1.9052    4.2037 H       1  LIG1       0.15000000000000002
     52 H           1.3337    2.7696    1.2797 H       1  LIG1       0.15000000000000002
     53 H           2.3430    1.5942    2.0870 H       1  LIG1       0.15000000000000002
     54 H           2.4831   -0.4500   -1.8745 H       1  LIG1          0.13
     55 H           3.1355   -1.9167   -1.1358 H       1  LIG1          0.14
     56 H           2.3026   -1.1860    1.1035 H       1  LIG1          0.13
     57 H           3.1120    0.2339    0.4236 H       1  LIG1          0.14
     58 H          -4.4543    2.5943    4.2143 H       1  LIG1       0.16000000000000003
     59 H          -3.3807    1.7265    5.3127 H       1  LIG1       0.18999999999999995
     60 H          -2.0579   -1.1617    2.3630 H       1  LIG1       0.15000000000000002
     61 H          -2.4880   -0.1735    0.9917 H       1  LIG1       0.15000000000000002
     62 H          -3.3738    0.5570    3.1638 H       1  LIG1       0.15000000000000002
     63 H          -3.0266    2.0373    2.2813 H       1  LIG1       0.15000000000000002
     64 H          -1.5089   -2.2770    0.1884 H       1  LIG1          0.13
     65 H          -0.1271   -2.0916    1.2625 H       1  LIG1          0.13
     66 H          -0.6687    4.4511    4.7017 H       1  LIG1       0.16000000000000003
     67 H          -0.8214    2.9408    5.6064 H       1  LIG1       0.18000000000000005
     68 H           1.9002   -0.7374   -4.8994 H       1  LIG1          0.13
     69 H           0.2913   -1.4182   -3.2123 H       1  LIG1          0.13
     70 H          -0.9434    3.2170    2.5630 H       1  LIG1          0.14
     71 H           0.9544   -2.7300   -0.5633 H       1  LIG1          0.12
     72 H           1.0324    1.0727   -0.4883 H       1  LIG1           0.13
@<TRIPOS>BOND
     1    32     2    1
     2    29     1    1
     3    34     2    1
     4     2    33    1
     5     2    18    1
     6    47     7    1
     7    31     1    1
     8     1    18    1
     9     1    30    1
    10    18     7    1
    11    18    68    1
    12     7    46    1
    13     7     6    1
    14    45     6    1
    15     6    44    1
    16     6     8    1
    17    37     3    1
    18    49     8    1
    19     8    48    1
    20     8    19    1
    21    69    19    1
    22    19     3    1
    23    19    23    1
    24     3    35    1
    25     3    36    1
    26    42     5    1
    27    54    11    1
    28    43     5    1
    29     5    41    1
    30     5    27    1
    31    23    11    1
    32    23    71    1
    33    23    27    1
    34    55    11    1
    35    11    12    1
    36    72    24    1
    37    27    24    1
    38    27    16    1
    39    64    16    1
    40    24    12    1
    41    24    22    1
    42    12    57    1
    43    12    56    1
    44    16    65    1
    45    16    14    1
    46    61    14    1
    47    52    10    1
    48    22    10    1
    49    22    25    2
    50    14    25    1
    51    14    60    1
    52    10    53    1
    53    10     9    1
    54    25    26    1
    55    63    15    1
    56    70    20    1
    57    62    15    1
    58    15    26    1
    59    15    13    1
    60    26    20    1
    61    26     4    1
    62     9    20    1
    63     9    50    1
    64     9    51    1
    65    20    17    1
    66    58    13    1
    67    13    21    1
    68    13    59    1
    69    38     4    1
    70     4    39    1
    71     4    40    1
    72    21    17    1
    73    21    28    2
    74    17    66    1
    75    17    67    1
