@<TRIPOS>MOLECULE
RZZPDXZPRHQOCG-OJAKKHQRSA-M	11085145	-2277.6452754874213
 56 57 0 0 0
SMALL
MULLIKEN NwChem

@<TRIPOS>ATOM
      1 C           1.6761    2.3654   -0.6469 C.3     1  LIG1      -0.33000000000000007
      2 C           2.3992    0.2992   -1.7728 C.3     1  LIG1      -0.34999999999999964
      3 C           3.8469    2.2574   -1.8009 C.3     1  LIG1      -0.33999999999999986
      4 C          -3.4830    2.9515   -0.3317 C.ar    1  LIG1      -0.2400000000000002
      5 C          -3.6310    1.6351   -0.5565 C.ar    1  LIG1       0.07000000000000028
      6 C           3.5365    1.1000    0.3687 C.3     1  LIG1      -0.15000000000000036
      7 C           4.0822   -0.3325    0.5018 C.3     1  LIG1       -0.08999999999999986
      8 C          -1.2463   -3.0411    1.0201 C.3     1  LIG1       -0.08000000000000007
      9 C          -1.9249   -2.4076   -0.1885 C.3     1  LIG1       0.1200000000000001
     10 C          -2.2345    3.6074   -0.7224 C.ar    1  LIG1       0.41999999999999993
     11 C          -1.0782   -2.0668   -1.4183 C.3     1  LIG1       0.07000000000000028
     12 C          -2.1275   -1.3789   -2.2816 C.3     1  LIG1       0.07000000000000028
     13 C          -2.8883   -0.5551   -1.2176 C.3     1  LIG1       0.2599999999999998
     14 C          -1.3942    1.5147   -1.5135 C.ar    1  LIG1       0.6799999999999997
     15 N          -2.1032    4.8857   -0.5115 N.pl3   1  LIG1      -0.7999999999999998
     16 N          -1.2509    2.8233   -1.3034 N.ar    1  LIG1      -0.6399999999999997
     17 N          -2.6464    0.8688   -1.1685 N.ar    1  LIG1         -0.5
     18 N           2.8772    1.4855   -0.9643 N.4     1  LIG1       -0.3600000000000003
     19 O          -0.4759   -3.1861   -2.0375 O.3     1  LIG1      -0.7100000000000009
     20 O          -3.0454   -2.3404   -2.8283 O.3     1  LIG1      -0.6899999999999995
     21 O          -0.4957    0.8028   -2.0243 O.2     1  LIG1      -0.6300000000000008
     22 O           3.8816   -1.5462    4.1974 O.2     1  LIG1      -0.5800000000000001
     23 O           2.2812    0.2638    3.2340 O.3     1  LIG1      -0.7200000000000006
     24 O           1.0436   -0.2409    1.0039 O.3     1  LIG1      -0.7400000000000002
     25 O           1.4940   -2.5613   -0.1433 O.2     1  LIG1      -0.6899999999999995
     26 O           4.3283   -0.5985    1.8846 O.3     1  LIG1      -0.5600000000000005
     27 O          -0.2683   -2.2811    1.7501 O.3     1  LIG1      -0.5399999999999991
     28 O          -2.5932   -1.1781    0.0737 O.3     1  LIG1      -0.5500000000000007
     29 O           2.2305   -2.0976    2.2599 O.3     1  LIG1      -0.6500000000000004
     30 P           3.1982   -1.0288    3.0016 P.3     1  LIG1       1.2400000000000002
     31 P           1.0928   -1.7581    1.0624 P.3     1  LIG1       1.2899999999999991
     32 H           2.0361    3.2189   -0.0670 H       1  LIG1       0.19999999999999996
     33 H           0.9718    1.7616   -0.0821 H       1  LIG1       0.21999999999999997
     34 H           1.1771    2.6776   -1.5618 H       1  LIG1       0.20999999999999996
     35 H           1.7674   -0.3193   -1.1482 H       1  LIG1       0.21999999999999997
     36 H           1.7903    0.6791   -2.5908 H       1  LIG1       0.20999999999999996
     37 H           3.2733   -0.2515   -2.1273 H       1  LIG1       0.20999999999999996
     38 H           3.3697    2.5012   -2.7515 H       1  LIG1       0.20999999999999996
     39 H           4.1199    3.1767   -1.2790 H       1  LIG1       0.21999999999999997
     40 H           4.7370    1.6477   -1.9740 H       1  LIG1       0.21999999999999997
     41 H          -4.2672    3.5380    0.1332 H       1  LIG1          0.14
     42 H          -4.5283    1.0901   -0.2769 H       1  LIG1       0.18999999999999995
     43 H           4.3314    1.8273    0.5510 H       1  LIG1       0.20999999999999996
     44 H           2.7744    1.2323    1.1230 H       1  LIG1       0.20999999999999996
     45 H           5.0523   -0.4383    0.0042 H       1  LIG1       0.19999999999999996
     46 H           3.4060   -1.0777    0.0829 H       1  LIG1       0.19999999999999996
     47 H          -2.0043   -3.2837    1.7697 H       1  LIG1       0.18999999999999995
     48 H          -0.7929   -3.9741    0.6611 H       1  LIG1       0.18000000000000005
     49 H          -2.6488   -3.1829   -0.5036 H       1  LIG1          0.14
     50 H          -0.3526   -1.2980   -1.1613 H       1  LIG1       0.18000000000000005
     51 H          -1.6957   -0.7553   -3.0631 H       1  LIG1       0.16000000000000003
     52 H          -3.9609   -0.6891   -1.4012 H       1  LIG1       0.17000000000000004
     53 H          -1.1693    5.1424   -0.8567 H       1  LIG1          0.26
     54 H           0.3777   -3.2654   -1.5631 H       1  LIG1       0.43999999999999995
     55 H          -2.4823   -3.0801   -3.1145 H       1  LIG1       0.43000000000000005
     56 H           1.5789    0.2749    2.5125 H       1  LIG1           0.48
@<TRIPOS>BOND
     1    55    20    1
     2    51    12    1
     3    20    12    1
     4    38     3    1
     5    36     2    1
     6    12    11    1
     7    12    13    1
     8    37     2    1
     9    19    54    1
    10    19    11    1
    11    21    14    2
    12    40     3    1
    13     3    39    1
    14     3    18    1
    15     2    35    1
    16     2    18    1
    17    34     1    1
    18    14    16   ar
    19    14    17   ar
    20    11    50    1
    21    11     9    1
    22    52    13    1
    23    16    10   ar
    24    13    17    1
    25    13    28    1
    26    17     5   ar
    27    18     1    1
    28    18     6    1
    29    53    15    1
    30    10    15    1
    31    10     4   ar
    32     1    33    1
    33     1    32    1
    34     5     4   ar
    35     5    42    1
    36    49     9    1
    37     4    41    1
    38     9    28    1
    39     9     8    1
    40    25    31    2
    41    45     7    1
    42    46     7    1
    43     6     7    1
    44     6    43    1
    45     6    44    1
    46     7    26    1
    47    48     8    1
    48    24    31    1
    49     8    27    1
    50     8    47    1
    51    31    27    1
    52    31    29    1
    53    26    30    1
    54    29    30    1
    55    56    23    1
    56    30    23    1
    57    30    22    2
