@<TRIPOS>MOLECULE
SALPDUSHMTYYOH-UHFFFAOYSA-N	6045213	-1224.675090661215
 41 41 0 0 0
SMALL
MULLIKEN NwChem

@<TRIPOS>ATOM
      1 C           2.5437   -3.3946    3.9019 C.3     1  LIG1      -0.45999999999999996
      2 C           2.0769   -1.9396    3.7789 C.3     1  LIG1      -0.2599999999999998
      3 C           2.7545   -1.1609    2.6385 C.3     1  LIG1      -0.2699999999999996
      4 C           2.5467   -1.7498    1.2307 C.3     1  LIG1      -0.28000000000000025
      5 C           1.0796   -1.9410    0.8118 C.3     1  LIG1      -0.2999999999999998
      6 C           0.9238    0.2493   -1.4648 C.3     1  LIG1       -0.33000000000000007
      7 C          -0.2475   -0.2053   -2.3349 C.3     1  LIG1       0.33000000000000007
      8 C          -1.8734    2.0171    0.2545 C.3     1  LIG1       -0.4400000000000004
      9 C          -2.3429    2.5000   -1.1308 C.3     1  LIG1       -0.03000000000000025
     10 C           0.1779   -0.6928    0.8958 C.3     1  LIG1       0.13999999999999968
     11 C           0.7068    0.4945    0.0522 C.3     1  LIG1       -0.29000000000000004
     12 C          -1.4700    1.8448   -2.1946 C.2     1  LIG1       0.6299999999999999
     13 N          -3.7744    2.2121   -1.2720 N.3     1  LIG1      -0.7599999999999998
     14 O          -0.5090   -1.5698   -2.1130 O.3     1  LIG1      -0.6400000000000006
     15 O          -1.1696   -1.0488    0.6070 O.3     1  LIG1      -0.6899999999999995
     16 O          -1.4560    0.4895   -1.9867 O.3     1  LIG1      -0.4900000000000002
     17 O          -0.8509    2.3891   -3.0772 O.2     1  LIG1      -0.5199999999999996
     18 S          -0.0510    2.1376    0.5095 S.3     1  LIG1          0.0
     19 H           2.2747   -3.9825    3.0169 H       1  LIG1       0.15000000000000002
     20 H           2.0890   -3.8830    4.7712 H       1  LIG1          0.14
     21 H           3.6336   -3.4506    4.0181 H       1  LIG1          0.14
     22 H           0.9868   -1.9166    3.6489 H       1  LIG1          0.14
     23 H           2.2776   -1.4149    4.7223 H       1  LIG1          0.13
     24 H           2.3969   -0.1222    2.6604 H       1  LIG1          0.14
     25 H           3.8348   -1.1109    2.8355 H       1  LIG1          0.13
     26 H           3.0631   -1.1082    0.5030 H       1  LIG1          0.14
     27 H           3.0488   -2.7235    1.1657 H       1  LIG1          0.14
     28 H           1.0405   -2.3385   -0.2097 H       1  LIG1       0.15000000000000002
     29 H           0.6046   -2.6974    1.4481 H       1  LIG1       0.15000000000000002
     30 H           1.2986    1.1799   -1.8996 H       1  LIG1       0.18000000000000005
     31 H           1.7112   -0.5037   -1.5921 H       1  LIG1       0.18999999999999995
     32 H          -1.2186   -1.8421   -2.7183 H       1  LIG1       0.44999999999999996
     33 H          -2.1622    0.9782    0.4210 H       1  LIG1       0.21999999999999997
     34 H          -2.3346    2.6390    1.0263 H       1  LIG1       0.19999999999999996
     35 H          -2.1935    3.5789   -1.2310 H       1  LIG1       0.17000000000000004
     36 H           0.1546   -0.3429    1.9324 H       1  LIG1       0.15000000000000002
     37 H           1.7161    0.6964    0.4322 H       1  LIG1       0.20999999999999996
     38 H          -4.1240    2.5736   -2.1580 H       1  LIG1       0.33999999999999997
     39 H          -3.9194    1.2032   -1.2802 H       1  LIG1       0.32999999999999996
     40 H          -1.1743   -1.4036   -0.3009 H       1  LIG1       0.42000000000000004
     41 H          -0.0245   -0.0183   -3.3918 H       1  LIG1       0.18000000000000005
@<TRIPOS>BOND
     1    41     7    1
     2    17    12    2
     3    32    14    1
     4     7    14    1
     5     7    16    1
     6     7     6    1
     7    12    16    1
     8    12     9    1
     9    38    13    1
    10    30     6    1
    11    31     6    1
    12     6    11    1
    13    39    13    1
    14    13     9    1
    15    35     9    1
    16     9     8    1
    17    40    15    1
    18    28     5    1
    19    11    37    1
    20    11    18    1
    21    11    10    1
    22     8    33    1
    23     8    18    1
    24     8    34    1
    25    26     4    1
    26    15    10    1
    27     5    10    1
    28     5     4    1
    29     5    29    1
    30    10    36    1
    31    27     4    1
    32     4     3    1
    33     3    24    1
    34     3    25    1
    35     3     2    1
    36    19     1    1
    37    22     2    1
    38     2     1    1
    39     2    23    1
    40     1    21    1
    41     1    20    1
