@<TRIPOS>MOLECULE
SAUCHDKDCUROAO-VKHMYHEASA-N	6045214	-436.99446426160756
 15 14 0 0 0
SMALL
MULLIKEN NwChem

@<TRIPOS>ATOM
      1 CG2         1.2678   -1.7358   -0.9857 C.3     1  THR1            -0.54
      2 CB          1.1991   -0.4772   -0.1564 C.2     1  THR1       0.46999999999999975
      3 CA          0.1601    0.5971   -0.5752 C.3     1  THR1       -0.1200000000000001
      4 C          -1.1667    0.3051    0.1483 C.2     1  THR1       0.5800000000000001
      5 N           0.6856    1.9161   -0.2977 N.3     1  THR1      -0.7599999999999998
      6 OG1         1.9173   -0.2686    0.7992 O.2     1  THR1      -0.4800000000000004
      7 OXT        -1.7302    1.0770    0.8873 O.2     1  THR1      -0.4900000000000002
      8 O          -1.6587   -0.9209   -0.1603 O.3     1  THR1      -0.5700000000000003
      9 HG21        1.6626   -1.4849   -1.9792 H       1  THR1       0.20999999999999996
     10 HG22        0.2684   -2.1578   -1.1286 H       1  THR1       0.19999999999999996
     11 HG23        1.9277   -2.4613   -0.5063 H       1  THR1       0.18000000000000005
     12 HA         -0.0472    0.4732   -1.6478 H       1  THR1       0.20999999999999996
     13 H1         -0.0879    2.5622   -0.1529 H       1  THR1       0.32999999999999996
     14 H2          1.1914    1.8676    0.5864 H       1  THR1       0.32999999999999996
     15 H          -2.4967   -1.0192    0.3306 H       1  THR1       0.44999999999999996
@<TRIPOS>BOND
     1     9     1    1
     2    12     3    1
     3    10     1    1
     4     1    11    1
     5     1     2    1
     6     3     5    1
     7     3     2    1
     8     3     4    1
     9     5    13    1
    10     5    14    1
    11     8     4    1
    12     8    15    1
    13     2     6    2
    14     4     7    2
