@<TRIPOS>MOLECULE
SBLKVIQSIHEQOF-UPHRSURJSA-L	6045217	-1004.7899064582355
 52 51 0 0 0
SMALL
MULLIKEN NwChem

@<TRIPOS>ATOM
      1 C           0.9555    0.1886   -0.1416 C.2     1  LIG1      -0.1299999999999999
      2 C           0.2987   -0.9132    0.2472 C.2     1  LIG1      -0.1299999999999999
      3 C           0.3645    1.5379   -0.4635 C.3     1  LIG1      -0.3099999999999996
      4 C          -1.1894   -1.0710    0.4328 C.3     1  LIG1      -0.3099999999999996
      5 C           0.5999    2.6005    0.6348 C.3     1  LIG1      -0.2599999999999998
      6 C          -1.8791   -1.8624   -0.7024 C.3     1  LIG1      -0.2599999999999998
      7 C           2.0747    2.9194    0.9401 C.3     1  LIG1      -0.2699999999999996
      8 C          -1.3859   -3.3080   -0.8938 C.3     1  LIG1      -0.2699999999999996
      9 C           2.8974    3.4468   -0.2481 C.3     1  LIG1      -0.2699999999999996
     10 C          -1.5405   -4.2276    0.3298 C.3     1  LIG1      -0.2699999999999996
     11 C           2.3400    4.7062   -0.9337 C.3     1  LIG1        -0.25
     12 C          -2.9675   -4.3508    0.8909 C.3     1  LIG1        -0.25
     13 C           2.0975    5.9041    0.0043 C.3     1  LIG1      -0.2699999999999996
     14 C          -4.0329   -4.7906   -0.1315 C.3     1  LIG1      -0.2699999999999996
     15 C           3.3299    6.3437    0.8174 C.3     1  LIG1       -0.3200000000000003
     16 C          -3.7208   -6.1131   -0.8574 C.3     1  LIG1       -0.3200000000000003
     17 C           4.5294    6.6954   -0.1304 C.2     1  LIG1       0.5099999999999998
     18 C          -3.5142   -7.2813    0.1690 C.2     1  LIG1       0.5099999999999998
     19 O           4.5781    7.8882   -0.5215 O.co2   1  LIG1      -0.6899999999999995
     20 O           5.2722    5.7214   -0.4380 O.co2   1  LIG1      -0.6699999999999999
     21 O          -4.5525   -7.9125    0.4872 O.co2   1  LIG1      -0.6899999999999995
     22 O          -2.3346   -7.4113    0.6015 O.co2   1  LIG1      -0.6699999999999999
     23 H           2.0417    0.1304   -0.2225 H       1  LIG1          0.13
     24 H           0.8846   -1.8136    0.4364 H       1  LIG1          0.13
     25 H           0.8016    1.9022   -1.4034 H       1  LIG1       0.15000000000000002
     26 H          -0.7138    1.4492   -0.6424 H       1  LIG1          0.14
     27 H          -1.3762   -1.5876    1.3843 H       1  LIG1       0.15000000000000002
     28 H          -1.6693   -0.0888    0.5191 H       1  LIG1          0.14
     29 H           0.0876    3.5245    0.3347 H       1  LIG1          0.14
     30 H           0.1085    2.2552    1.5559 H       1  LIG1          0.13
     31 H          -2.9596   -1.8747   -0.5057 H       1  LIG1          0.14
     32 H          -1.7381   -1.3072   -1.6410 H       1  LIG1          0.13
     33 H           2.1015    3.6611    1.7493 H       1  LIG1          0.14
     34 H           2.5600    2.0180    1.3416 H       1  LIG1          0.13
     35 H          -1.9337   -3.7447   -1.7394 H       1  LIG1          0.13
     36 H          -0.3292   -3.2882   -1.1975 H       1  LIG1          0.13
     37 H           3.9144    3.6919    0.0783 H       1  LIG1          0.13
     38 H           2.9977    2.6500   -1.0016 H       1  LIG1          0.13
     39 H          -1.2132   -5.2432    0.0803 H       1  LIG1          0.13
     40 H          -0.8746   -3.8763    1.1334 H       1  LIG1          0.12
     41 H           3.0708    5.0073   -1.6916 H       1  LIG1          0.12
     42 H           1.4007    4.4693   -1.4596 H       1  LIG1          0.12
     43 H          -2.9327   -5.0972    1.6914 H       1  LIG1          0.12
     44 H          -3.2817   -3.3967    1.3450 H       1  LIG1          0.12
     45 H           1.7773    6.7595   -0.6079 H       1  LIG1          0.12
     46 H           1.2575    5.6761    0.6817 H       1  LIG1          0.13
     47 H          -4.9869   -4.9169    0.4006 H       1  LIG1          0.12
     48 H          -4.1925   -3.9834   -0.8660 H       1  LIG1          0.13
     49 H           3.0584    7.2269    1.4125 H       1  LIG1       0.09999999999999998
     50 H           3.6267    5.5436    1.5092 H       1  LIG1          0.12
     51 H          -4.5612   -6.3519   -1.5241 H       1  LIG1       0.10999999999999999
     52 H          -2.8184   -5.9976   -1.4732 H       1  LIG1           0.12
@<TRIPOS>BOND
     1    35     8    1
     2    41    11    1
     3    32     6    1
     4    51    16    1
     5    52    16    1
     6    42    11    1
     7    25     3    1
     8    36     8    1
     9    38     9    1
    10    11     9    1
    11    11    13    1
    12     8     6    1
    13     8    10    1
    14    48    14    1
    15    16    14    1
    16    16    18    1
    17     6    31    1
    18     6     4    1
    19    26     3    1
    20    45    13    1
    21    19    17   ar
    22     3     1    1
    23     3     5    1
    24    20    17   ar
    25     9    37    1
    26     9     7    1
    27    23     1    1
    28     1     2    2
    29    14    47    1
    30    14    12    1
    31    17    15    1
    32    13    46    1
    33    13    15    1
    34    39    10    1
    35    18    21   ar
    36    18    22   ar
    37     2     4    1
    38     2    24    1
    39    10    12    1
    40    10    40    1
    41    29     5    1
    42     4    28    1
    43     4    27    1
    44     5     7    1
    45     5    30    1
    46    15    49    1
    47    15    50    1
    48    12    44    1
    49    12    43    1
    50     7    34    1
    51     7    33    1
