@<TRIPOS>MOLECULE
SCBIBGUJSMHIAI-LHIIQLEZSA-K	11084008	-3041.74765274507
 95 98 0 0 0
SMALL
MULLIKEN NwChem

@<TRIPOS>ATOM
      1 C          -9.2165    1.4636    1.7298 C.3     1  LIG1      -0.46999999999999975
      2 C          -9.3146   -1.6894   -1.9626 C.3     1  LIG1      -0.45999999999999996
      3 C          -4.3586    0.7953   -1.4384 C.ar    1  LIG1      -0.21999999999999975
      4 C          -3.9577   -1.1276   -0.0732 C.ar    1  LIG1      -0.20000000000000018
      5 C          -5.5320    1.0696   -0.7362 C.ar    1  LIG1      -0.20999999999999996
      6 C          -5.1253   -0.8685    0.6347 C.ar    1  LIG1      -0.21999999999999975
      7 C          11.7303    0.5556    0.9634 C.3     1  LIG1      -0.2599999999999998
      8 C          12.2095    0.6171   -0.4904 C.3     1  LIG1       -0.3600000000000003
      9 C          -2.2966   -0.6042   -1.9277 C.3     1  LIG1       -0.3600000000000003
     10 C           1.6832    1.1965   -0.5979 C.3     1  LIG1       -0.05999999999999961
     11 C           6.2936   -0.5119   -0.3570 C.3     1  LIG1       -0.09999999999999964
     12 C          -8.2724    1.1816    0.5566 C.3     1  LIG1       0.03000000000000025
     13 C          -9.0038   -1.0798   -0.5861 C.3     1  LIG1       0.009999999999999787
     14 C          -3.5511   -0.3076   -1.1366 C.ar    1  LIG1      0.15000000000000036
     15 C          -5.9466    0.2350    0.3189 C.ar    1  LIG1       0.33999999999999986
     16 C          -0.9711   -0.2690   -1.2213 C.3     1  LIG1       0.1200000000000001
     17 C           0.3360    1.5877    0.0108 C.3     1  LIG1       0.09999999999999964
     18 C          10.2223    0.4537    1.1918 C.3     1  LIG1       0.03000000000000025
     19 C           5.1301   -1.1609    0.3896 C.3     1  LIG1       0.08999999999999986
     20 C          13.7533    0.3430   -0.6693 C.2     1  LIG1       0.5099999999999998
     21 C          -8.9119    0.4655   -0.6894 C.3     1  LIG1       0.019999999999999574
     22 C         -11.2909    0.4627   -0.2864 C.ar    1  LIG1       0.13999999999999968
     23 C          -0.8875    1.2177   -0.8424 C.3     1  LIG1       0.1200000000000001
     24 C           4.6344   -2.4970   -0.2442 C.3     1  LIG1       0.08999999999999986
     25 C           3.1257   -2.2307   -0.4683 C.3     1  LIG1       0.05999999999999961
     26 C         -11.2009   -0.7124    0.3622 C.ar    1  LIG1       0.4400000000000004
     27 C         -12.4436    1.3507    0.0033 C.ar    1  LIG1       0.4900000000000002
     28 C           9.3621    1.6944    0.7948 C.2     1  LIG1          0.54
     29 C           3.1100   -0.7193   -0.6697 C.3     1  LIG1       0.33999999999999986
     30 C         -13.4767   -0.3730    1.2431 C.ar    1  LIG1       0.5700000000000003
     31 N         -14.4788   -0.8519    1.9340 N.pl3   1  LIG1      -0.8200000000000003
     32 N          -7.0883    0.4863    1.0784 N.pl3   1  LIG1      -0.6799999999999997
     33 N         -10.0016   -1.4663    0.4340 N.pl3   1  LIG1      -0.6500000000000004
     34 N         -10.2251    0.9650   -1.0779 N.pl3   1  LIG1      -0.6900000000000004
     35 N         -12.2944   -1.2081    1.0650 N.ar    1  LIG1      -0.7300000000000004
     36 N         -13.4974    0.8657    0.6984 N.ar    1  LIG1      -0.6600000000000001
     37 O          -0.8363   -1.0980   -0.0715 O.3     1  LIG1      -0.6899999999999995
     38 O           0.2616    3.0162    0.1370 O.3     1  LIG1      -0.6799999999999997
     39 O          14.2803    0.8748   -1.6818 O.co2   1  LIG1      -0.6899999999999995
     40 O          14.2900   -0.4127    0.1882 O.co2   1  LIG1      -0.6799999999999997
     41 O          -0.8721    1.9589   -2.0641 O.3     1  LIG1      -0.6899999999999995
     42 O           4.8543   -3.6588    0.5233 O.3     1  LIG1      -0.6699999999999999
     43 O           2.3852   -2.5612    0.7139 O.3     1  LIG1      -0.6600000000000001
     44 O         -12.3486    2.5388   -0.3958 O.2     1  LIG1      -0.6999999999999993
     45 O           8.3030    1.4671    0.1459 O.co2   1  LIG1      -0.6300000000000008
     46 O           9.8050    2.7752    1.2383 O.co2   1  LIG1      -0.6600000000000001
     47 O           8.9495   -3.0627    0.4904 O.3     1  LIG1      -0.6799999999999997
     48 O           7.7757   -1.3412    2.1171 O.2     1  LIG1      -0.6400000000000006
     49 O           1.8250   -0.2168   -0.4492 O.3     1  LIG1      -0.5199999999999996
     50 O           7.3841   -1.4400   -0.4511 O.3     1  LIG1      -0.5399999999999991
     51 O           3.9835   -0.2494    0.3418 O.3     1  LIG1      -0.5399999999999991
     52 O           9.7814   -0.7818    0.4875 O.3     1  LIG1      -0.5500000000000007
     53 P           8.4283   -1.5415    0.7960 P.3     1  LIG1       1.1799999999999997
     54 H          -8.6779    2.0435    2.4886 H       1  LIG1       0.15000000000000002
     55 H         -10.0874    2.0329    1.3977 H       1  LIG1       0.16000000000000003
     56 H          -9.5732    0.5343    2.1850 H       1  LIG1       0.16000000000000003
     57 H         -10.2648   -1.3019   -2.3396 H       1  LIG1       0.16000000000000003
     58 H          -8.5255   -1.4439   -2.6837 H       1  LIG1       0.15000000000000002
     59 H          -9.3772   -2.7840   -1.8922 H       1  LIG1       0.15000000000000002
     60 H          -4.0589    1.4615   -2.2450 H       1  LIG1          0.14
     61 H          -3.3380   -1.9764    0.2013 H       1  LIG1          0.14
     62 H          -6.1277    1.9346   -1.0099 H       1  LIG1       0.15000000000000002
     63 H          -5.4182   -1.5265    1.4518 H       1  LIG1          0.14
     64 H          12.2363   -0.2961    1.4337 H       1  LIG1          0.13
     65 H          12.0440    1.4584    1.5000 H       1  LIG1          0.14
     66 H          11.6786   -0.1499   -1.0747 H       1  LIG1          0.14
     67 H          11.9579    1.5815   -0.9467 H       1  LIG1          0.12
     68 H          -2.3144   -0.0463   -2.8701 H       1  LIG1       0.15000000000000002
     69 H          -2.2538   -1.6721   -2.1775 H       1  LIG1       0.15000000000000002
     70 H           1.7153    1.4804   -1.6587 H       1  LIG1       0.16000000000000003
     71 H           2.4998    1.7030   -0.0676 H       1  LIG1       0.17000000000000004
     72 H           5.9961   -0.2978   -1.3922 H       1  LIG1       0.17000000000000004
     73 H           6.6243    0.4203    0.1071 H       1  LIG1       0.19999999999999996
     74 H          -7.9337    2.1602    0.1895 H       1  LIG1       0.15000000000000002
     75 H          -8.0325   -1.4614   -0.2536 H       1  LIG1       0.15000000000000002
     76 H          -0.1607   -0.4711   -1.9347 H       1  LIG1          0.14
     77 H           0.2398    1.0995    0.9899 H       1  LIG1       0.15000000000000002
     78 H          10.0249    0.2736    2.2570 H       1  LIG1       0.17000000000000004
     79 H           5.4014   -1.3032    1.4375 H       1  LIG1       0.17000000000000004
     80 H          -8.2186    0.6537   -1.5198 H       1  LIG1          0.14
     81 H          -1.7754    1.4795   -0.2480 H       1  LIG1          0.13
     82 H           5.1468   -2.6584   -1.1978 H       1  LIG1       0.17000000000000004
     83 H           2.6851   -2.8017   -1.2886 H       1  LIG1       0.18000000000000005
     84 H           3.4697   -0.4293   -1.6728 H       1  LIG1       0.16000000000000003
     85 H         -14.2521   -1.8169    2.2038 H       1  LIG1          0.27
     86 H          -7.3540   -0.2998    1.6616 H       1  LIG1       0.33999999999999997
     87 H         -10.1999   -2.4649    0.3659 H       1  LIG1       0.33999999999999997
     88 H         -10.3245    1.9791   -1.1187 H       1  LIG1       0.31999999999999995
     89 H         -12.0504   -1.7466    1.8896 H       1  LIG1          0.36
     90 H           0.1203   -1.2180    0.0696 H       1  LIG1       0.43000000000000005
     91 H           1.0338    3.3170    0.6402 H       1  LIG1       0.43999999999999995
     92 H          -0.6857    2.8765   -1.8024 H       1  LIG1       0.43000000000000005
     93 H           4.1532   -3.6545    1.1986 H       1  LIG1       0.42000000000000004
     94 H           2.5040   -1.8024    1.3140 H       1  LIG1       0.43000000000000005
     95 H           9.9121   -2.9965    0.3780 H       1  LIG1           0.47
@<TRIPOS>BOND
     1    68     9    1
     2    58     2    1
     3    57     2    1
     4    60     3    1
     5    69     9    1
     6    41    92    1
     7    41    23    1
     8     2    59    1
     9     2    13    1
    10    76    16    1
    11     9    16    1
    12     9    14    1
    13    39    20   ar
    14    84    29    1
    15    70    10    1
    16    80    21    1
    17     3    14   ar
    18     3     5   ar
    19    72    11    1
    20    83    25    1
    21    16    23    1
    22    16    37    1
    23    82    24    1
    24    14     4   ar
    25    88    34    1
    26    34    21    1
    27    34    22    1
    28    66     8    1
    29    62     5    1
    30    67     8    1
    31    23    81    1
    32    23    17    1
    33     5    15   ar
    34    21    13    1
    35    21    12    1
    36    29    25    1
    37    29    49    1
    38    29    51    1
    39    20     8    1
    40    20    40   ar
    41    10    49    1
    42    10    71    1
    43    10    17    1
    44    13    75    1
    45    13    33    1
    46     8     7    1
    47    25    24    1
    48    25    43    1
    49    50    11    1
    50    50    53    1
    51    44    27    2
    52    11    73    1
    53    11    19    1
    54    22    27   ar
    55    22    26   ar
    56    24    19    1
    57    24    42    1
    58     4    61    1
    59     4     6   ar
    60    37    90    1
    61    27    36   ar
    62    17    38    1
    63    17    77    1
    64    38    91    1
    65    45    28   ar
    66    74    12    1
    67    15     6   ar
    68    15    32    1
    69    51    19    1
    70    26    33    1
    71    26    35   ar
    72    87    33    1
    73    95    47    1
    74    19    79    1
    75    52    53    1
    76    52    18    1
    77    47    53    1
    78    42    93    1
    79    12    32    1
    80    12     1    1
    81     6    63    1
    82    36    30   ar
    83    43    94    1
    84    28    18    1
    85    28    46   ar
    86    53    48    2
    87     7    18    1
    88     7    64    1
    89     7    65    1
    90    35    30   ar
    91    35    89    1
    92    32    86    1
    93    18    78    1
    94    30    31    1
    95    55     1    1
    96     1    56    1
    97     1    54    1
    98    31    85    1
