@<TRIPOS>MOLECULE
SCEZIHJVTBQOLS-YIJYGBTNSA-N	6045222	-1170.525721469981
 77 80 0 0 0
SMALL
MULLIKEN NwChem

@<TRIPOS>ATOM
      1 C          -4.1413   -5.3037   -0.5238 C.3     1  LIG1      -0.45999999999999996
      2 C          -3.0362   -6.4534   -2.4816 C.3     1  LIG1      -0.45999999999999996
      3 C          -2.4889   -1.0859   -4.0347 C.3     1  LIG1      -0.4800000000000004
      4 C           4.4234    2.9604    3.6076 C.3     1  LIG1      -0.4800000000000004
      5 C          -1.7012    1.2915   -2.0619 C.3     1  LIG1      -0.4900000000000002
      6 C           2.7635    0.2615    2.6141 C.3     1  LIG1      -0.4800000000000004
      7 C          -4.3800   -2.7581   -2.2913 C.3     1  LIG1      -0.28000000000000025
      8 C          -4.0462   -4.1675   -2.8094 C.3     1  LIG1      -0.2599999999999998
      9 C          -3.1843   -1.9560   -1.7466 C.3     1  LIG1      -0.28000000000000025
     10 C           2.4197    2.4168   -0.5427 C.3     1  LIG1      -0.34999999999999964
     11 C           3.2947    2.7177    0.6773 C.3     1  LIG1      -0.28000000000000025
     12 C           0.4912   -1.1296   -2.9517 C.3     1  LIG1      -0.29000000000000004
     13 C           1.5199   -0.3917   -2.0981 C.3     1  LIG1      -0.28000000000000025
     14 C          -0.0023   -0.1788    1.0387 C.3     1  LIG1      -0.3600000000000003
     15 C           1.4072    2.2774    4.6243 C.3     1  LIG1      -0.29000000000000004
     16 C          -1.1840    0.1741    0.1234 C.3     1  LIG1      -0.2999999999999998
     17 C           0.7679    1.5966    3.4009 C.3     1  LIG1      -0.3099999999999996
     18 C          -3.3330   -5.1030   -1.8139 C.3     1  LIG1      -0.05999999999999961
     19 C          -2.0136   -1.7585   -2.7318 C.3     1  LIG1      -0.05999999999999961
     20 C           3.0676    3.5040    3.1286 C.3     1  LIG1      -0.08999999999999986
     21 C           1.3628    1.3683   -0.2730 C.2     1  LIG1      0.11000000000000032
     22 C          -0.7563   -1.1461   -2.0498 C.3     1  LIG1      -0.1200000000000001
     23 C           2.4158    2.7716    1.9301 C.3     1  LIG1      -0.1299999999999999
     24 C           0.7112    0.7944   -1.5113 C.3     1  LIG1      -0.20000000000000018
     25 C           1.0567    0.9060    0.9528 C.2     1  LIG1      0.08000000000000007
     26 C           2.0490    3.6301    4.2841 C.3     1  LIG1       0.1299999999999999
     27 C          -0.7789    0.2761   -1.3675 C.3     1  LIG1      0.13999999999999968
     28 C           1.7659    1.3840    2.2282 C.3     1  LIG1      0.05999999999999961
     29 O           1.0510    4.6172    3.9983 O.3     1  LIG1      -0.6899999999999995
     30 H          -5.1364   -5.7096   -0.7494 H       1  LIG1          0.14
     31 H          -4.2801   -4.3654    0.0243 H       1  LIG1       0.15000000000000002
     32 H          -3.6389   -6.0090    0.1491 H       1  LIG1          0.14
     33 H          -3.9685   -6.9599   -2.7647 H       1  LIG1          0.14
     34 H          -2.4385   -6.3251   -3.3921 H       1  LIG1          0.14
     35 H          -2.4859   -7.1210   -1.8084 H       1  LIG1          0.14
     36 H          -3.0995   -0.1985   -3.8454 H       1  LIG1       0.15000000000000002
     37 H          -1.6516   -0.7870   -4.6724 H       1  LIG1       0.15000000000000002
     38 H          -3.1019   -1.7820   -4.6179 H       1  LIG1       0.15000000000000002
     39 H           4.8880    3.6765    4.2957 H       1  LIG1       0.15000000000000002
     40 H           4.3410    2.0075    4.1361 H       1  LIG1       0.16000000000000003
     41 H           5.1123    2.8137    2.7691 H       1  LIG1       0.15000000000000002
     42 H          -1.5407    2.2872   -1.6293 H       1  LIG1          0.14
     43 H          -1.4978    1.3592   -3.1353 H       1  LIG1       0.15000000000000002
     44 H          -2.7595    1.0426   -1.9310 H       1  LIG1       0.15000000000000002
     45 H           2.2376   -0.7002    2.6379 H       1  LIG1       0.15000000000000002
     46 H           3.5712    0.1718    1.8821 H       1  LIG1       0.15000000000000002
     47 H           3.2127    0.4072    3.5986 H       1  LIG1       0.15000000000000002
     48 H          -4.8611   -2.1954   -3.1019 H       1  LIG1          0.13
     49 H          -5.1334   -2.8308   -1.4963 H       1  LIG1          0.13
     50 H          -3.4275   -4.0860   -3.7131 H       1  LIG1          0.13
     51 H          -4.9816   -4.6504   -3.1301 H       1  LIG1          0.12
     52 H          -3.5540   -0.9757   -1.4203 H       1  LIG1          0.14
     53 H          -2.8044   -2.4522   -0.8431 H       1  LIG1          0.14
     54 H           1.9193    3.3399   -0.8789 H       1  LIG1          0.14
     55 H           3.0398    2.0978   -1.3928 H       1  LIG1          0.14
     56 H           3.8249    3.6693    0.5418 H       1  LIG1          0.13
     57 H           4.0657    1.9451    0.7842 H       1  LIG1          0.14
     58 H           0.3024   -0.5616   -3.8718 H       1  LIG1          0.14
     59 H           0.8044   -2.1379   -3.2486 H       1  LIG1          0.13
     60 H           1.8719   -1.0402   -1.2854 H       1  LIG1          0.14
     61 H           2.4023   -0.0565   -2.6544 H       1  LIG1          0.13
     62 H          -0.3624   -0.3137    2.0621 H       1  LIG1          0.14
     63 H           0.4194   -1.1516    0.7416 H       1  LIG1       0.15000000000000002
     64 H           0.6478    2.4378    5.3979 H       1  LIG1          0.14
     65 H           2.1668    1.6180    5.0617 H       1  LIG1       0.15000000000000002
     66 H          -1.5841    1.1399    0.4587 H       1  LIG1          0.12
     67 H          -1.9900   -0.5562    0.2442 H       1  LIG1          0.14
     68 H           0.3374    0.6417    3.7209 H       1  LIG1       0.15000000000000002
     69 H          -0.0787    2.2010    3.0419 H       1  LIG1          0.14
     70 H          -2.3695   -4.6467   -1.5422 H       1  LIG1          0.13
     71 H          -1.6726   -2.7643   -3.0212 H       1  LIG1          0.13
     72 H           3.2479    4.5321    2.7835 H       1  LIG1          0.12
     73 H          -0.5175   -1.8528   -1.2385 H       1  LIG1          0.12
     74 H           1.5601    3.4104    1.6484 H       1  LIG1          0.12
     75 H           0.7088    1.5806   -2.2802 H       1  LIG1          0.12
     76 H           2.5597    4.0226    5.1713 H       1  LIG1          0.13
     77 H           0.5455    4.3157    3.2281 H       1  LIG1       0.43000000000000005
@<TRIPOS>BOND
     1    37     3    1
     2    38     3    1
     3     3    36    1
     4     3    19    1
     5    58    12    1
     6    50     8    1
     7    34     2    1
     8    59    12    1
     9    43     5    1
    10    51     8    1
    11    48     7    1
    12    71    19    1
    13    12    13    1
    14    12    22    1
    15     8     7    1
    16     8    18    1
    17    33     2    1
    18    19    22    1
    19    19     9    1
    20    61    13    1
    21     2    18    1
    22     2    35    1
    23     7     9    1
    24     7    49    1
    25    75    24    1
    26    13    24    1
    27    13    60    1
    28     5    44    1
    29     5    42    1
    30     5    27    1
    31    22    27    1
    32    22    73    1
    33    18    70    1
    34    18     1    1
    35     9    52    1
    36     9    53    1
    37    24    27    1
    38    24    21    1
    39    55    10    1
    40    27    16    1
    41    54    10    1
    42    30     1    1
    43    10    21    1
    44    10    11    1
    45     1    31    1
    46     1    32    1
    47    21    25    2
    48    16    67    1
    49    16    66    1
    50    16    14    1
    51    56    11    1
    52    11    57    1
    53    11    23    1
    54    63    14    1
    55    25    14    1
    56    25    28    1
    57    14    62    1
    58    74    23    1
    59    46     6    1
    60    23    28    1
    61    23    20    1
    62    28     6    1
    63    28    17    1
    64     6    45    1
    65     6    47    1
    66    41     4    1
    67    72    20    1
    68    69    17    1
    69    20     4    1
    70    20    26    1
    71    77    29    1
    72    17    68    1
    73    17    15    1
    74     4    40    1
    75     4    39    1
    76    29    26    1
    77    26    15    1
    78    26    76    1
    79    15    65    1
    80    15    64    1
