@<TRIPOS>MOLECULE
SCNLPRDASXIFJK-IQULNDIKSA-L	11084006	-2315.5888137811985
 109 108 0 0 0
SMALL
MULLIKEN NwChem

@<TRIPOS>ATOM
      1 C          14.6183    1.1037   -0.9405 C.3     1  LIG1      -0.45999999999999996
      2 C         -11.0214    3.6446    0.5708 C.3     1  LIG1      -0.4500000000000002
      3 C          14.5797    1.2687    0.5838 C.3     1  LIG1        -0.25
      4 C          -9.6028    3.8581    0.0225 C.3     1  LIG1        -0.25
      5 C          13.1604    1.2957    1.1741 C.3     1  LIG1      -0.2599999999999998
      6 C          -8.9470    2.5914   -0.5530 C.3     1  LIG1      -0.28000000000000025
      7 C          12.3683   -0.0047    0.9708 C.3     1  LIG1      -0.2599999999999998
      8 C          -8.8310    1.3972    0.4099 C.3     1  LIG1      -0.2400000000000002
      9 C          11.0128   -0.0409    1.6961 C.3     1  LIG1      -0.2599999999999998
     10 C          -7.9883    1.7060    1.6544 C.3     1  LIG1      -0.28000000000000025
     11 C          10.0017    0.9971    1.1906 C.3     1  LIG1      -0.2599999999999998
     12 C          -7.8364    0.4993    2.6054 C.3     1  LIG1      -0.3200000000000003
     13 C           8.6433    0.9556    1.9108 C.3     1  LIG1      -0.2699999999999996
     14 C          -7.3086   -0.7208    1.8957 C.2     1  LIG1      -0.1200000000000001
     15 C           7.8534   -0.3582    1.7657 C.3     1  LIG1      -0.2699999999999996
     16 C          -7.7912   -1.9585    2.0522 C.2     1  LIG1      -0.16999999999999993
     17 C           7.5794   -0.7978    0.3165 C.3     1  LIG1      -0.2699999999999996
     18 C          -7.3486   -3.1930    1.2927 C.3     1  LIG1      -0.2999999999999998
     19 C           6.8619    0.2463   -0.5569 C.3     1  LIG1      -0.2699999999999996
     20 C          -6.1232   -3.0143    0.3782 C.3     1  LIG1      -0.29000000000000004
     21 C           5.5103    0.7379   -0.0086 C.3     1  LIG1      -0.2699999999999996
     22 C          -4.8018   -2.9040    1.1630 C.3     1  LIG1      -0.2599999999999998
     23 C           4.4511   -0.3542    0.2184 C.3     1  LIG1      -0.2699999999999996
     24 C          -3.6262   -2.2569    0.4093 C.3     1  LIG1      -0.3099999999999996
     25 C           4.0786   -1.1348   -1.0505 C.3     1  LIG1      -0.2699999999999996
     26 C          -2.9630   -3.0899   -0.7024 C.3     1  LIG1      -0.2599999999999998
     27 C           2.8920   -2.0988   -0.8756 C.3     1  LIG1      -0.2599999999999998
     28 C          -3.7337   -3.2611   -2.0275 C.3     1  LIG1      -0.28000000000000025
     29 C           1.5450   -1.4035   -0.6518 C.3     1  LIG1       -0.3799999999999999
     30 C          -4.2117   -1.9754   -2.7377 C.3     1  LIG1       -0.3799999999999999
     31 C          -0.6188    0.9833   -2.5131 C.3     1  LIG1       -0.08999999999999986
     32 C          -2.4631    1.4811   -0.7827 C.3     1  LIG1       -0.03000000000000025
     33 C          -2.0822    0.8551   -2.1477 C.3     1  LIG1       0.09999999999999964
     34 C           1.0898   -0.5949   -1.8610 C.2     1  LIG1       0.6399999999999997
     35 C          -3.1218   -1.0242   -3.1689 C.2     1  LIG1       0.6399999999999997
     36 O           1.4984   -0.7836   -2.9936 O.2     1  LIG1      -0.5399999999999991
     37 O          -2.8307   -0.7391   -4.3150 O.2     1  LIG1      -0.5500000000000007
     38 O          -4.7616    1.3191   -2.6265 O.2     1  LIG1      -0.7799999999999994
     39 O          -5.9202   -0.0198   -0.7393 O.3     1  LIG1      -0.7200000000000006
     40 O          -5.7483    2.5707   -0.5584 O.3     1  LIG1      -0.7400000000000002
     41 O           0.1895    0.3142   -1.4926 O.3     1  LIG1      -0.46000000000000085
     42 O          -3.6699    1.0427   -0.2667 O.3     1  LIG1      -0.6300000000000008
     43 O          -2.4398   -0.5368   -2.0932 O.3     1  LIG1      -0.4800000000000004
     44 P          -5.1851    1.2775   -1.1526 P.3     1  LIG1          1.08
     45 H          14.2066    0.1380   -1.2535 H       1  LIG1       0.15000000000000002
     46 H          14.0318    1.8887   -1.4343 H       1  LIG1          0.14
     47 H          15.6449    1.1633   -1.3207 H       1  LIG1          0.14
     48 H         -11.0150    2.9530    1.4219 H       1  LIG1       0.15000000000000002
     49 H         -11.4789    4.5864    0.9083 H       1  LIG1          0.14
     50 H         -11.6778    3.2102   -0.1971 H       1  LIG1          0.14
     51 H          15.1520    0.4554    1.0537 H       1  LIG1          0.13
     52 H          15.0938    2.2011    0.8553 H       1  LIG1          0.13
     53 H          -9.6369    4.6286   -0.7632 H       1  LIG1          0.12
     54 H          -8.9684    4.2708    0.8183 H       1  LIG1          0.13
     55 H          13.2266    1.5036    2.2527 H       1  LIG1          0.13
     56 H          12.6108    2.1392    0.7345 H       1  LIG1          0.14
     57 H          -7.9239    2.8237   -0.8804 H       1  LIG1       0.15000000000000002
     58 H          -9.5204    2.2778   -1.4420 H       1  LIG1       0.09999999999999998
     59 H          12.1995   -0.1725   -0.1018 H       1  LIG1          0.13
     60 H          12.9832   -0.8476    1.3203 H       1  LIG1          0.13
     61 H          -8.3174    0.5982   -0.1365 H       1  LIG1          0.12
     62 H          -9.8262    1.0171    0.7038 H       1  LIG1       0.10999999999999999
     63 H          10.5858   -1.0461    1.5851 H       1  LIG1          0.14
     64 H          11.1725    0.1059    2.7755 H       1  LIG1          0.13
     65 H          -7.0039    2.0286    1.2888 H       1  LIG1       0.15000000000000002
     66 H          -8.4259    2.5404    2.2285 H       1  LIG1       0.10999999999999999
     67 H          10.4221    2.0045    1.3090 H       1  LIG1          0.13
     68 H           9.8538    0.8573    0.1104 H       1  LIG1          0.14
     69 H          -7.1379    0.7869    3.4112 H       1  LIG1          0.13
     70 H          -8.7980    0.2683    3.0980 H       1  LIG1          0.12
     71 H           8.0282    1.7860    1.5413 H       1  LIG1          0.14
     72 H           8.8043    1.1516    2.9813 H       1  LIG1          0.13
     73 H          -6.5315   -0.5094    1.1523 H       1  LIG1       0.18000000000000005
     74 H           8.3858   -1.1676    2.2837 H       1  LIG1          0.13
     75 H           6.8992   -0.2437    2.2954 H       1  LIG1          0.13
     76 H          -8.6149   -2.1233    2.7586 H       1  LIG1       0.10999999999999999
     77 H           8.5284   -1.0700   -0.1676 H       1  LIG1          0.13
     78 H           6.9838   -1.7198    0.3408 H       1  LIG1          0.13
     79 H          -7.1580   -4.0146    2.0092 H       1  LIG1          0.13
     80 H          -8.2019   -3.5439    0.6854 H       1  LIG1          0.13
     81 H           7.5190    1.1162   -0.6986 H       1  LIG1          0.14
     82 H           6.7139   -0.1807   -1.5571 H       1  LIG1          0.13
     83 H          -6.2477   -2.1129   -0.2337 H       1  LIG1       0.18000000000000005
     84 H          -6.0772   -3.8737   -0.3060 H       1  LIG1          0.12
     85 H           5.1028    1.4771   -0.7122 H       1  LIG1          0.13
     86 H           5.6757    1.2781    0.9344 H       1  LIG1          0.14
     87 H          -4.9939   -2.2861    2.0495 H       1  LIG1          0.12
     88 H          -4.5138   -3.9027    1.5423 H       1  LIG1       0.10999999999999999
     89 H           4.7951   -1.0589    0.9909 H       1  LIG1          0.14
     90 H           3.5556    0.1276    0.6298 H       1  LIG1          0.14
     91 H          -3.9455   -1.2845    0.0209 H       1  LIG1       0.19999999999999996
     92 H          -2.8395   -2.0406    1.1499 H       1  LIG1       0.09999999999999998
     93 H           3.8391   -0.4342   -1.8610 H       1  LIG1          0.13
     94 H           4.9515   -1.7100   -1.3908 H       1  LIG1          0.14
     95 H          -2.7341   -4.0996   -0.3147 H       1  LIG1       0.10999999999999999
     96 H          -2.0001   -2.6187   -0.9361 H       1  LIG1          0.13
     97 H           3.0913   -2.7797   -0.0351 H       1  LIG1          0.14
     98 H           2.8065   -2.7139   -1.7783 H       1  LIG1          0.14
     99 H          -3.0965   -3.8398   -2.7179 H       1  LIG1          0.13
    100 H          -4.6248   -3.8771   -1.8528 H       1  LIG1       0.15000000000000002
    101 H           1.5463   -0.7522    0.2282 H       1  LIG1       0.18000000000000005
    102 H           0.7557   -2.1454   -0.4674 H       1  LIG1       0.19999999999999996
    103 H          -4.7608   -2.2533   -3.6441 H       1  LIG1          0.14
    104 H          -4.8849   -1.3924   -2.0878 H       1  LIG1       0.22999999999999998
    105 H          -0.4181    0.5216   -3.4802 H       1  LIG1       0.18000000000000005
    106 H          -0.3041    2.0335   -2.5226 H       1  LIG1       0.18000000000000005
    107 H          -2.4218    2.5816   -0.9336 H       1  LIG1       0.10999999999999999
    108 H          -1.6777    1.2265   -0.0502 H       1  LIG1          0.12
    109 H          -2.7037    1.3265   -2.9134 H       1  LIG1       0.18000000000000005
@<TRIPOS>BOND
     1    37    35    2
     2   103    30    1
     3   105    31    1
     4    35    30    1
     5    35    43    1
     6    36    34    2
     7   109    33    1
     8    30   104    1
     9    30    28    1
    10    99    28    1
    11    38    44    2
    12   106    31    1
    13    31    33    1
    14    31    41    1
    15    33    43    1
    16    33    32    1
    17    28   100    1
    18    28    26    1
    19    34    41    1
    20    34    29    1
    21    93    25    1
    22    98    27    1
    23    82    19    1
    24    58     6    1
    25    46     1    1
    26    94    25    1
    27    47     1    1
    28    45     1    1
    29    44    39    1
    30    44    40    1
    31    44    42    1
    32    25    27    1
    33    25    23    1
    34     1     3    1
    35    96    26    1
    36   107    32    1
    37    57     6    1
    38    27    29    1
    39    27    97    1
    40    32    42    1
    41    32   108    1
    42    53     4    1
    43    85    21    1
    44    26    95    1
    45    26    24    1
    46    81    19    1
    47    29   102    1
    48    29   101    1
    49    19    21    1
    50    19    17    1
    51     6     4    1
    52     6     8    1
    53    84    20    1
    54    83    20    1
    55    50     2    1
    56    77    17    1
    57    61     8    1
    58    59     7    1
    59    21    23    1
    60    21    86    1
    61    91    24    1
    62     4     2    1
    63     4    54    1
    64    68    11    1
    65    23    90    1
    66    23    89    1
    67    17    78    1
    68    17    15    1
    69    20    22    1
    70    20    18    1
    71    24    92    1
    72    24    22    1
    73     8    62    1
    74     8    10    1
    75     2    49    1
    76     2    48    1
    77     3    52    1
    78     3    51    1
    79     3     5    1
    80    80    18    1
    81    56     5    1
    82     7     5    1
    83     7    60    1
    84     7     9    1
    85    73    14    1
    86    22    88    1
    87    22    87    1
    88     5    55    1
    89    11    67    1
    90    11     9    1
    91    11    13    1
    92    65    10    1
    93    18    79    1
    94    18    16    1
    95    71    13    1
    96    63     9    1
    97    10    66    1
    98    10    12    1
    99     9    64    1
   100    15    13    1
   101    15    74    1
   102    15    75    1
   103    14    16    2
   104    14    12    1
   105    13    72    1
   106    16    76    1
   107    12    70    1
   108    12    69    1
