@<TRIPOS>MOLECULE
SCSZJXOTAAUHEL-UPHRSURJSA-L	6045224	-1066.9738001465112
 15 14 0 0 0
SMALL
MULLIKEN NwChem

@<TRIPOS>ATOM
      1 C           0.3307   -1.1912   -0.3131 C.2     1  LIG1      -0.20000000000000018
      2 C          -0.1756   -2.4095   -0.0144 C.2     1  LIG1       -0.1900000000000004
      3 C          -0.0988    0.0961    0.2754 C.2     1  LIG1       0.4400000000000004
      4 C          -1.2721   -2.9027    0.9392 C.2     1  LIG1       0.4900000000000002
      5 C           0.9510    1.2167    0.0849 C.3     1  LIG1       -0.3799999999999999
      6 C           1.1921    1.6338   -1.4574 C.2     1  LIG1       0.5499999999999998
      7 CL          0.5615    2.6645    1.1639 Cl      1  LIG1      -0.1700000000000017
      8 O          -1.1588    0.2762    0.8579 O.2     1  LIG1      -0.5299999999999994
      9 O          -0.9771   -2.9516    2.1558 O.co2   1  LIG1      -0.6500000000000004
     10 O          -2.2940   -3.3194    0.3352 O.co2   1  LIG1      -0.6600000000000001
     11 O           0.5438    2.5938   -1.9026 O.co2   1  LIG1      -0.6199999999999992
     12 O           2.0343    0.8766   -2.0016 O.co2   1  LIG1      -0.6300000000000008
     13 H           1.1516   -1.1036   -1.0225 H       1  LIG1       0.15000000000000002
     14 H           0.2793   -3.2435   -0.5617 H       1  LIG1       0.17000000000000004
     15 H           1.9130    0.8562    0.4545 H       1  LIG1       0.21999999999999997
@<TRIPOS>BOND
     1    12     6   ar
     2    11     6   ar
     3     6     5    1
     4    13     1    1
     5    14     2    1
     6     1     2    2
     7     1     3    1
     8     2     4    1
     9     5     3    1
    10     5    15    1
    11     5     7    1
    12     3     8    2
    13    10     4   ar
    14     4     9   ar
