@<TRIPOS>MOLECULE
SDZUXFFGOQZLPK-SINUOACOSA-N	6045225	-1169.3489799719237
 75 78 0 0 0
SMALL
MULLIKEN NwChem

@<TRIPOS>ATOM
      1 C          -3.9338   -5.3997   -0.2822 C.3     1  LIG1      -0.45999999999999996
      2 C          -2.4054   -6.5469   -1.9285 C.3     1  LIG1      -0.45999999999999996
      3 C          -2.0603   -1.3336   -3.9217 C.3     1  LIG1      -0.4800000000000004
      4 C           4.1109    1.5330    1.0183 C.3     1  LIG1      -0.4900000000000002
      5 C          -1.8165    1.3102   -2.1436 C.3     1  LIG1      -0.4900000000000002
      6 C          -0.1462    3.2584    2.8187 C.3     1  LIG1      -0.46999999999999975
      7 C          -4.0169   -2.9679   -2.2425 C.3     1  LIG1      -0.28000000000000025
      8 C          -3.5201   -4.3820   -2.5895 C.3     1  LIG1      -0.2599999999999998
      9 C          -2.9602   -2.0251   -1.6411 C.3     1  LIG1      -0.28000000000000025
     10 C           1.7744    3.1935   -0.3003 C.3     1  LIG1      -0.34999999999999964
     11 C           2.2337    3.9606    0.9587 C.3     1  LIG1      -0.2999999999999998
     12 C           0.7361   -0.8965   -2.4908 C.3     1  LIG1      -0.29000000000000004
     13 C           1.5493    0.0433   -1.6029 C.3     1  LIG1      -0.28000000000000025
     14 C          -0.3658    0.3647    1.2823 C.3     1  LIG1      -0.3600000000000003
     15 C           2.4118    0.4136    3.5466 C.3     1  LIG1       -0.3600000000000003
     16 C          -1.4484    0.4811    0.1973 C.3     1  LIG1      -0.2999999999999998
     17 C           1.2069    1.3574    3.6801 C.3     1  LIG1      -0.2999999999999998
     18 C          -2.9244   -5.1932   -1.4212 C.3     1  LIG1      -0.05999999999999961
     19 C          -1.6969   -1.8042   -2.5006 C.3     1  LIG1      -0.05999999999999961
     20 C           3.6614    2.2754    2.2980 C.3     1  LIG1       -0.16000000000000014
     21 C           0.9394    1.9626   -0.0386 C.2     1  LIG1      0.11000000000000032
     22 C          -0.6116   -0.9798   -1.7511 C.3     1  LIG1      -0.1200000000000001
     23 C           2.3280    3.0946    2.2295 C.3     1  LIG1      -0.11000000000000032
     24 C           0.5458    1.1767   -1.2710 C.3     1  LIG1      -0.20000000000000018
     25 C           0.5973    1.5340    1.1889 C.2     1  LIG1      0.08999999999999986
     26 C           3.6686    1.2512    3.4292 C.2     1  LIG1       0.45999999999999996
     27 C          -0.8807    0.4887   -1.2411 C.3     1  LIG1      0.13999999999999968
     28 C           1.0099    2.2876    2.4579 C.3     1  LIG1      0.03000000000000025
     29 O           4.6198    1.1242    4.1784 O.2     1  LIG1      -0.5299999999999994
     30 H          -4.8255   -5.9276   -0.6464 H       1  LIG1          0.14
     31 H          -4.2633   -4.4505    0.1533 H       1  LIG1       0.15000000000000002
     32 H          -3.4997   -6.0013    0.5255 H       1  LIG1          0.14
     33 H          -3.2264   -7.1434   -2.3471 H       1  LIG1          0.14
     34 H          -1.6529   -6.4178   -2.7158 H       1  LIG1          0.14
     35 H          -1.9498   -7.1294   -1.1184 H       1  LIG1          0.14
     36 H          -2.7657   -0.4984   -3.9166 H       1  LIG1       0.15000000000000002
     37 H          -1.1772   -1.0236   -4.4888 H       1  LIG1       0.15000000000000002
     38 H          -2.5309   -2.1488   -4.4819 H       1  LIG1       0.15000000000000002
     39 H           5.0460    0.9976    1.2159 H       1  LIG1       0.15000000000000002
     40 H           3.3634    0.8154    0.6726 H       1  LIG1       0.18000000000000005
     41 H           4.3062    2.2394    0.2074 H       1  LIG1       0.17000000000000004
     42 H          -1.8248    2.3550   -1.8086 H       1  LIG1          0.14
     43 H          -1.4846    1.2989   -3.1867 H       1  LIG1       0.15000000000000002
     44 H          -2.8496    0.9481   -2.1096 H       1  LIG1       0.15000000000000002
     45 H          -0.3675    3.9444    1.9963 H       1  LIG1       0.15000000000000002
     46 H          -1.0633    2.6950    3.0296 H       1  LIG1       0.15000000000000002
     47 H           0.0962    3.8484    3.7118 H       1  LIG1          0.14
     48 H          -4.4358   -2.5131   -3.1490 H       1  LIG1          0.13
     49 H          -4.8548   -3.0370   -1.5372 H       1  LIG1          0.13
     50 H          -2.7666   -4.3170   -3.3876 H       1  LIG1          0.14
     51 H          -4.3591   -4.9511   -3.0171 H       1  LIG1          0.12
     52 H          -3.4417   -1.0583   -1.4499 H       1  LIG1          0.14
     53 H          -2.6536   -2.4095   -0.6578 H       1  LIG1          0.14
     54 H           1.1888    3.8716   -0.9399 H       1  LIG1       0.15000000000000002
     55 H           2.6334    2.9039   -0.9208 H       1  LIG1       0.15000000000000002
     56 H           1.5288    4.7763    1.1534 H       1  LIG1       0.15000000000000002
     57 H           3.2015    4.4425    0.7723 H       1  LIG1          0.14
     58 H           0.6114   -0.4474   -3.4847 H       1  LIG1          0.14
     59 H           1.1968   -1.8813   -2.6323 H       1  LIG1          0.13
     60 H           1.8431   -0.4779   -0.6826 H       1  LIG1          0.14
     61 H           2.4645    0.4237   -2.0704 H       1  LIG1          0.13
     62 H          -0.8552    0.3356    2.2613 H       1  LIG1       0.15000000000000002
     63 H           0.1669   -0.5949    1.1876 H       1  LIG1       0.15000000000000002
     64 H           2.5070   -0.2493    4.4109 H       1  LIG1       0.16000000000000003
     65 H           2.2973   -0.2041    2.6450 H       1  LIG1       0.18999999999999995
     66 H          -1.9886    1.4202    0.3773 H       1  LIG1          0.13
     67 H          -2.1778   -0.3266    0.3091 H       1  LIG1          0.14
     68 H           0.3001    0.7765    3.8762 H       1  LIG1       0.16000000000000003
     69 H           1.3538    1.9894    4.5677 H       1  LIG1       0.15000000000000002
     70 H          -2.0665   -4.6348   -1.0184 H       1  LIG1          0.13
     71 H          -1.2219   -2.7906   -2.6225 H       1  LIG1          0.12
     72 H           4.4566    2.9908    2.5408 H       1  LIG1       0.15000000000000002
     73 H          -0.4072   -1.5686   -0.8420 H       1  LIG1          0.12
     74 H           2.3948    3.7883    3.0814 H       1  LIG1          0.13
     75 H           0.5588    1.8639   -2.1282 H       1  LIG1           0.12
@<TRIPOS>BOND
     1    37     3    1
     2    38     3    1
     3     3    36    1
     4     3    19    1
     5    58    12    1
     6    50     8    1
     7    43     5    1
     8    48     7    1
     9    51     8    1
    10    34     2    1
    11    59    12    1
    12    71    19    1
    13     8     7    1
    14     8    18    1
    15    19    22    1
    16    19     9    1
    17    12    22    1
    18    12    13    1
    19    33     2    1
    20     7     9    1
    21     7    49    1
    22     5    44    1
    23     5    42    1
    24     5    27    1
    25    75    24    1
    26    61    13    1
    27     2    18    1
    28     2    35    1
    29    22    27    1
    30    22    73    1
    31     9    52    1
    32     9    53    1
    33    13    24    1
    34    13    60    1
    35    18    70    1
    36    18     1    1
    37    24    27    1
    38    24    21    1
    39    27    16    1
    40    54    10    1
    41    55    10    1
    42    30     1    1
    43    10    21    1
    44    10    11    1
    45     1    31    1
    46     1    32    1
    47    21    25    2
    48    16    67    1
    49    16    66    1
    50    16    14    1
    51    41     4    1
    52    40     4    1
    53    57    11    1
    54    11    56    1
    55    11    23    1
    56     4    39    1
    57     4    20    1
    58    63    14    1
    59    25    14    1
    60    25    28    1
    61    14    62    1
    62    45     6    1
    63    23    20    1
    64    23    28    1
    65    23    74    1
    66    20    72    1
    67    20    26    1
    68    28     6    1
    69    28    17    1
    70    65    15    1
    71     6    46    1
    72     6    47    1
    73    26    15    1
    74    26    29    2
    75    15    17    1
    76    15    64    1
    77    17    68    1
    78    17    69    1
