@<TRIPOS>MOLECULE
SECPZKHBENQXJG-FPLPWBNLSA-M	6045226	-777.4073942532798
 47 46 0 0 0
SMALL
MULLIKEN NwChem

@<TRIPOS>ATOM
      1 C           4.4404    6.2063   -1.8952 C.3     1  LIG1      -0.45999999999999996
      2 C           4.4623    4.7215   -2.2760 C.3     1  LIG1      -0.2599999999999998
      3 C           4.4951    3.7686   -1.0693 C.3     1  LIG1      -0.2599999999999998
      4 C           3.3059    3.8909   -0.0997 C.3     1  LIG1      -0.2599999999999998
      5 C           1.9193    3.7122   -0.7402 C.3     1  LIG1      -0.2599999999999998
      6 C           1.7161    2.3727   -1.4835 C.3     1  LIG1      -0.3200000000000003
      7 C           1.9839    1.1621   -0.6231 C.2     1  LIG1      -0.1299999999999999
      8 C           1.0722    0.4057    0.0014 C.2     1  LIG1      -0.1200000000000001
      9 C          -0.4251    0.5586   -0.0386 C.3     1  LIG1      -0.3200000000000003
     10 C          -1.1245   -0.5154   -0.9045 C.3     1  LIG1      -0.2599999999999998
     11 C          -0.8297   -1.9701   -0.4990 C.3     1  LIG1      -0.2699999999999996
     12 C          -1.1561   -2.3236    0.9615 C.3     1  LIG1      -0.28000000000000025
     13 C          -2.6118   -2.0608    1.3854 C.3     1  LIG1      -0.2599999999999998
     14 C          -3.6744   -2.7992    0.5482 C.3     1  LIG1        -0.25
     15 C          -3.4039   -4.3070    0.4130 C.3     1  LIG1       -0.33999999999999986
     16 C          -3.1307   -4.9519    1.8204 C.2     1  LIG1       0.5199999999999996
     17 O          -4.0612   -4.7974    2.6532 O.co2   1  LIG1      -0.6799999999999997
     18 O          -2.0068   -5.5005    1.9647 O.co2   1  LIG1      -0.6799999999999997
     19 H           3.5278    6.4672   -1.3478 H       1  LIG1       0.15000000000000002
     20 H           4.4870    6.8460   -2.7845 H       1  LIG1          0.14
     21 H           5.2945    6.4607   -1.2542 H       1  LIG1          0.14
     22 H           3.5898    4.4944   -2.9027 H       1  LIG1          0.14
     23 H           5.3429    4.5230   -2.9025 H       1  LIG1          0.13
     24 H           4.5560    2.7363   -1.4388 H       1  LIG1          0.14
     25 H           5.4239    3.9429   -0.5065 H       1  LIG1          0.13
     26 H           3.4279    3.1426    0.6938 H       1  LIG1          0.13
     27 H           3.3395    4.8685    0.4001 H       1  LIG1          0.13
     28 H           1.1610    3.7861    0.0502 H       1  LIG1          0.13
     29 H           1.7229    4.5395   -1.4372 H       1  LIG1          0.14
     30 H           0.6940    2.3457   -1.8770 H       1  LIG1          0.14
     31 H           2.3785    2.3433   -2.3603 H       1  LIG1       0.15000000000000002
     32 H           3.0361    0.9069   -0.4890 H       1  LIG1          0.13
     33 H           1.4316   -0.4397    0.5877 H       1  LIG1          0.13
     34 H          -0.8120    0.4876    0.9866 H       1  LIG1       0.15000000000000002
     35 H          -0.7052    1.5538   -0.4054 H       1  LIG1          0.14
     36 H          -2.2069   -0.3387   -0.8585 H       1  LIG1          0.14
     37 H          -0.8250   -0.3636   -1.9518 H       1  LIG1          0.13
     38 H          -1.4022   -2.6305   -1.1622 H       1  LIG1          0.14
     39 H           0.2295   -2.1904   -0.6958 H       1  LIG1          0.13
     40 H          -0.9461   -3.3857    1.1347 H       1  LIG1          0.13
     41 H          -0.4839   -1.7636    1.6308 H       1  LIG1          0.13
     42 H          -2.7272   -2.3974    2.4218 H       1  LIG1          0.12
     43 H          -2.8251   -0.9790    1.3765 H       1  LIG1          0.13
     44 H          -4.6389   -2.6775    1.0556 H       1  LIG1          0.12
     45 H          -3.7672   -2.3298   -0.4461 H       1  LIG1          0.13
     46 H          -4.2881   -4.7816   -0.0385 H       1  LIG1          0.12
     47 H          -2.5508   -4.4976   -0.2510 H       1  LIG1           0.12
@<TRIPOS>BOND
     1    22     2    1
     2    23     2    1
     3    20     1    1
     4    31     6    1
     5     2     1    1
     6     2     3    1
     7    37    10    1
     8     1    19    1
     9     1    21    1
    10    30     6    1
    11     6     5    1
    12     6     7    1
    13    24     3    1
    14    29     5    1
    15    38    11    1
    16     3    25    1
    17     3     4    1
    18    10    36    1
    19    10    11    1
    20    10     9    1
    21     5     4    1
    22     5    28    1
    23    39    11    1
    24     7    32    1
    25     7     8    2
    26    11    12    1
    27    45    14    1
    28    35     9    1
    29    47    15    1
    30     4    27    1
    31     4    26    1
    32     9     8    1
    33     9    34    1
    34    46    15    1
    35     8    33    1
    36    15    14    1
    37    15    16    1
    38    14    44    1
    39    14    13    1
    40    12    40    1
    41    12    13    1
    42    12    41    1
    43    43    13    1
    44    13    42    1
    45    16    18   ar
    46    16    17   ar
