@<TRIPOS>MOLECULE
SENPVEZBRZQVST-HISDBWNOSA-L	11084005	-2954.3428045940427
 68 72 0 0 0
SMALL
MULLIKEN NwChem

@<TRIPOS>ATOM
      1 C           5.9335    1.5888    0.3855 C.2     1  LIG1      -0.1900000000000004
      2 C           7.0903    1.4517    1.1513 C.3     1  LIG1       -0.11000000000000032
      3 C           5.2231    0.4585    0.0083 C.2     1  LIG1      0.11000000000000032
      4 C           6.7620   -0.9065    1.1742 C.2     1  LIG1       0.08999999999999986
      5 C           2.0863   -0.7556   -1.8515 C.3     1  LIG1       -0.07000000000000028
      6 C          -2.0518    2.1884   -0.9571 C.3     1  LIG1       -0.07000000000000028
      7 C          -7.6592    1.2356   -0.2290 C.ar    1  LIG1       0.15000000000000036
      8 C          -5.1883   -1.5766    1.9704 C.ar    1  LIG1       0.23000000000000043
      9 C           7.5299    0.1813    1.5457 C.2     1  LIG1           0.0
     10 C           2.6894   -1.7150   -0.8399 C.3     1  LIG1       0.11000000000000032
     11 C          -2.3571    0.6910   -0.9860 C.3     1  LIG1       0.07000000000000028
     12 C          -6.9697   -0.4706    1.6918 C.ar    1  LIG1       0.1900000000000004
     13 C           2.5803   -1.3029    0.6380 C.3     1  LIG1       0.04999999999999982
     14 C          -3.2656    0.1987   -2.1276 C.3     1  LIG1       0.1200000000000001
     15 C           3.7108   -2.1148    1.2649 C.3     1  LIG1       0.09999999999999964
     16 C          -3.9568   -1.0514   -1.4911 C.3     1  LIG1       0.07000000000000028
     17 C          -8.2440    0.1227    1.6997 C.ar    1  LIG1       0.45999999999999996
     18 C          -6.1246   -0.1083    0.6311 C.ar    1  LIG1       0.5300000000000002
     19 C           4.7830   -1.9858    0.1633 C.3     1  LIG1       0.23000000000000043
     20 C          -3.7472   -0.8306    0.0305 C.3     1  LIG1       0.28000000000000025
     21 C           8.8344   -0.0406    2.3733 C.2     1  LIG1       0.5199999999999996
     22 N          -9.1504   -0.1290    2.7015 N.pl3   1  LIG1      -0.7800000000000002
     23 N          -8.5810    0.9776    0.7219 N.ar    1  LIG1        -0.54
     24 N          -6.4261    0.7471   -0.3567 N.ar    1  LIG1        -0.54
     25 N          -6.3675   -1.3983    2.5246 N.ar    1  LIG1      -0.5700000000000003
     26 N           5.6396   -0.7621    0.4252 N.pl3   1  LIG1      -0.41999999999999993
     27 N          -4.9750   -0.8448    0.8244 N.ar    1  LIG1      -0.5099999999999998
     28 O           1.3304   -1.5852    1.2039 O.3     1  LIG1      -0.7100000000000009
     29 O          -2.5997   -0.2149   -3.2962 O.3     1  LIG1      -0.7300000000000004
     30 O           3.3450   -3.4810    1.3905 O.3     1  LIG1      -0.6699999999999999
     31 O          -3.2981   -2.2284   -1.9039 O.3     1  LIG1      -0.6999999999999993
     32 O           9.0783   -1.2436    2.6263 O.co2   1  LIG1      -0.6500000000000004
     33 O           9.4450    1.0127    2.6560 O.co2   1  LIG1      -0.6400000000000006
     34 O           2.6664    2.3293    0.1744 O.3     1  LIG1      -0.6699999999999999
     35 O           0.5842    0.7167    0.1081 O.2     1  LIG1      -0.7300000000000004
     36 O          -0.2131    0.7495   -3.0901 O.3     1  LIG1      -0.7300000000000004
     37 O           0.0961    3.2033   -4.0113 O.2     1  LIG1      -0.6300000000000008
     38 O           2.5060    0.5795   -1.6250 O.3     1  LIG1      -0.6099999999999994
     39 O          -1.6163    2.7103   -2.2059 O.3     1  LIG1      -0.5800000000000001
     40 O           4.1296   -1.8608   -1.0565 O.3     1  LIG1      -0.5199999999999996
     41 O          -3.1228    0.4121    0.2130 O.3     1  LIG1      -0.5399999999999991
     42 O           0.8819    2.5893   -1.6398 O.3     1  LIG1      -0.6500000000000004
     43 P           1.6264    1.5744   -0.5985 P.3     1  LIG1          1.25
     44 P          -0.1722    2.2623   -2.8910 P.3     1  LIG1       1.1799999999999997
     45 H           5.5252    2.5468    0.0832 H       1  LIG1       0.19999999999999996
     46 H           7.6879    2.3006    1.4709 H       1  LIG1       0.18999999999999995
     47 H           4.3332    0.5132   -0.6096 H       1  LIG1          0.27
     48 H           7.0551   -1.9051    1.4800 H       1  LIG1       0.22999999999999998
     49 H           0.9977   -0.8347   -1.8216 H       1  LIG1       0.18999999999999995
     50 H           2.4154   -1.0364   -2.8583 H       1  LIG1       0.16000000000000003
     51 H          -1.3163    2.3795   -0.1692 H       1  LIG1       0.17000000000000004
     52 H          -2.9848    2.7126   -0.7156 H       1  LIG1       0.16000000000000003
     53 H          -7.9740    1.9357   -1.0003 H       1  LIG1       0.17000000000000004
     54 H          -4.4157   -2.2351    2.3463 H       1  LIG1       0.20999999999999996
     55 H           2.2317   -2.7056   -0.9637 H       1  LIG1       0.17000000000000004
     56 H          -1.4251    0.1197   -0.9681 H       1  LIG1       0.18999999999999995
     57 H           2.8212   -0.2419    0.7483 H       1  LIG1       0.17000000000000004
     58 H          -4.0236    0.9630   -2.3468 H       1  LIG1          0.14
     59 H           4.0614   -1.7104    2.2246 H       1  LIG1       0.18000000000000005
     60 H          -5.0255   -1.0996   -1.7369 H       1  LIG1       0.16000000000000003
     61 H           5.4732   -2.8348    0.1557 H       1  LIG1       0.20999999999999996
     62 H          -3.1317   -1.6603    0.4082 H       1  LIG1       0.18000000000000005
     63 H          -8.9932   -0.9758    3.2318 H       1  LIG1          0.38
     64 H         -10.1119    0.0852    2.4742 H       1  LIG1          0.37
     65 H           0.8021   -0.7790    0.9286 H       1  LIG1       0.44999999999999996
     66 H          -1.6599    0.1751   -3.2954 H       1  LIG1       0.45999999999999996
     67 H           2.3802   -3.4574    1.5311 H       1  LIG1       0.43999999999999995
     68 H          -2.7509   -1.8938   -2.6573 H       1  LIG1       0.42000000000000004
@<TRIPOS>BOND
     1    37    44    2
     2    29    66    1
     3    29    14    1
     4    36    44    1
     5    44    39    1
     6    44    42    1
     7    50     5    1
     8    68    31    1
     9    58    14    1
    10    39     6    1
    11    14    16    1
    12    14    11    1
    13    31    16    1
    14     5    49    1
    15     5    38    1
    16     5    10    1
    17    60    16    1
    18    42    43    1
    19    38    43    1
    20    16    20    1
    21    40    10    1
    22    40    19    1
    23    53     7    1
    24    11    56    1
    25    11     6    1
    26    11    41    1
    27    55    10    1
    28     6    52    1
    29     6    51    1
    30    10    13    1
    31    47     3    1
    32    43    35    2
    33    43    34    1
    34    24     7   ar
    35    24    18   ar
    36     7    23   ar
    37     3     1    2
    38     3    26    1
    39    20    41    1
    40    20    62    1
    41    20    27    1
    42    45     1    1
    43    61    19    1
    44    19    26    1
    45    19    15    1
    46     1     2    1
    47    26     4    1
    48    18    27   ar
    49    18    12   ar
    50    13    57    1
    51    13    28    1
    52    13    15    1
    53    23    17   ar
    54    27     8   ar
    55    65    28    1
    56     2    46    1
    57     2     9    1
    58     4    48    1
    59     4     9    2
    60    15    30    1
    61    15    59    1
    62    30    67    1
    63     9    21    1
    64    12    17   ar
    65    12    25   ar
    66    17    22    1
    67     8    54    1
    68     8    25   ar
    69    21    32   ar
    70    21    33   ar
    71    64    22    1
    72    22    63    1
