@<TRIPOS>MOLECULE
SEOVTRFCIGRIMH-UHFFFAOYSA-M	11084004	-591.1146508221885
 21 22 0 0 0
SMALL
MULLIKEN NwChem

@<TRIPOS>ATOM
      1 C          -2.1585   -1.6602    0.5927 C.ar    1  LIG1      -0.17999999999999972
      2 C          -3.1728   -0.6814    0.5275 C.ar    1  LIG1      -0.17999999999999972
      3 C          -0.8504   -1.3734    0.2122 C.ar    1  LIG1      -0.21999999999999975
      4 C          -2.8999    0.6094    0.0802 C.ar    1  LIG1      -0.20000000000000018
      5 C           2.0144   -0.1040   -0.8693 C.3     1  LIG1       -0.41000000000000014
      6 C           0.3405    1.8382   -1.0007 C.ar    1  LIG1       -0.04999999999999982
      7 C           0.6724    0.5405   -0.7114 C.ar    1  LIG1      0.07000000000000028
      8 C          -0.5527   -0.0822   -0.2522 C.ar    1  LIG1       0.040000000000000036
      9 C          -1.5860    0.8933   -0.3082 C.ar    1  LIG1       0.28000000000000025
     10 C           2.6319   -0.6540    0.4931 C.2     1  LIG1           0.5
     11 N          -1.0292    2.0562   -0.8060 N.ar    1  LIG1      -0.6799999999999997
     12 O           3.5575    0.0335    0.9743 O.co2   1  LIG1      -0.6699999999999999
     13 O           2.1102   -1.7216    0.9088 O.co2   1  LIG1      -0.6400000000000006
     14 H          -2.4035   -2.6525    0.9661 H       1  LIG1          0.13
     15 H          -4.1846   -0.9337    0.8403 H       1  LIG1          0.14
     16 H          -0.0285   -2.0766    0.3170 H       1  LIG1          0.14
     17 H          -3.6786    1.3691    0.0361 H       1  LIG1       0.15000000000000002
     18 H           2.7120    0.6151   -1.3151 H       1  LIG1          0.12
     19 H           1.9205   -0.9625   -1.5498 H       1  LIG1          0.13
     20 H           0.9692    2.6351   -1.3758 H       1  LIG1       0.17000000000000004
     21 H          -1.4488    2.9672   -0.7050 H       1  LIG1           0.37
@<TRIPOS>BOND
     1    19     5    1
     2    20     6    1
     3    18     5    1
     4     6    11   ar
     5     6     7   ar
     6     5     7    1
     7     5    10    1
     8    11    21    1
     9    11     9   ar
    10     7     8   ar
    11     9     8   ar
    12     9     4   ar
    13     8     3   ar
    14    17     4    1
    15     4     2   ar
    16     3    16    1
    17     3     1   ar
    18    10    13   ar
    19    10    12   ar
    20     2     1   ar
    21     2    15    1
    22     1    14    1
