@<TRIPOS>MOLECULE
SEPQTYODOKLVSB-UHFFFAOYSA-N	6045229	-270.46619659898914
 14 13 0 0 0
SMALL
MULLIKEN NwChem

@<TRIPOS>ATOM
      1 C           0.0798    0.4654   -1.7742 C.3     1  LIG1            -0.54
      2 C          -1.2584    1.8978   -0.0698 C.3     1  LIG1      -0.5300000000000002
      3 C          -0.0584   -0.1334    0.6731 C.2     1  LIG1      -0.23000000000000043
      4 C           0.7719   -1.3336    0.5565 C.2     1  LIG1       0.23000000000000043
      5 C          -0.3861    0.6895   -0.3466 C.2     1  LIG1      0.16999999999999993
      6 O           1.0530   -2.0541    1.5011 O.2     1  LIG1         -0.5
      7 H          -0.2996    1.2433   -2.4419 H       1  LIG1       0.18000000000000005
      8 H          -0.2619   -0.5002   -2.1640 H       1  LIG1       0.18999999999999995
      9 H           1.1734    0.4720   -1.8472 H       1  LIG1       0.18999999999999995
     10 H          -2.2273    1.5925    0.3437 H       1  LIG1       0.18999999999999995
     11 H          -0.7897    2.5565    0.6714 H       1  LIG1       0.18999999999999995
     12 H          -1.4494    2.4881   -0.9702 H       1  LIG1       0.17000000000000004
     13 H          -0.4178    0.0735    1.6801 H       1  LIG1       0.15000000000000002
     14 H           1.1506   -1.5740   -0.4608 H       1  LIG1           0.13
@<TRIPOS>BOND
     1     7     1    1
     2     8     1    1
     3     9     1    1
     4     1     5    1
     5    12     2    1
     6    14     4    1
     7     5     2    1
     8     5     3    2
     9     2    10    1
    10     2    11    1
    11     4     3    1
    12     4     6    2
    13     3    13    1
