@<TRIPOS>MOLECULE
SFLSHLFXELFNJZ-QMMMGPOBSA-O	6045230	-592.1885532672376
 24 24 0 0 0
SMALL
MULLIKEN NwChem

@<TRIPOS>ATOM
      1 C           1.3966    0.4973   -0.2961 C.ar    1  LIG1      -0.1900000000000004
      2 C           1.3306   -0.1046   -1.5543 C.ar    1  LIG1      -0.20999999999999996
      3 C          -0.6925   -0.5727    0.2988 C.ar    1  LIG1      -0.2699999999999996
      4 C           0.0067    2.4488    1.8262 C.3     1  LIG1      -0.17999999999999972
      5 C           0.3897    0.2636    0.6433 C.ar    1  LIG1      0.04999999999999982
      6 C           0.2646   -0.9367   -1.9014 C.ar    1  LIG1       0.3099999999999996
      7 C          -0.7608   -1.1837   -0.9540 C.ar    1  LIG1       0.3200000000000003
      8 C           0.4187    0.9708    1.9849 C.3     1  LIG1       0.08999999999999986
      9 N          -1.3138    2.5286    1.0836 N.4     1  LIG1         -0.71
     10 O           0.1355   -1.5505   -3.0974 O.3     1  LIG1      -0.6699999999999999
     11 O          -1.7573   -2.0126   -1.3455 O.3     1  LIG1      -0.6699999999999999
     12 O           1.7018    1.0879    2.5602 O.3     1  LIG1      -0.6600000000000001
     13 H           2.2446    1.1229   -0.0346 H       1  LIG1       0.16000000000000003
     14 H           2.1232    0.0672   -2.2788 H       1  LIG1       0.17000000000000004
     15 H          -1.4612   -0.8040    1.0365 H       1  LIG1       0.18000000000000005
     16 H          -0.1087    2.9575    2.7846 H       1  LIG1       0.22999999999999998
     17 H           0.7485    2.9659    1.2153 H       1  LIG1       0.21999999999999997
     18 H          -0.2912    0.4795    2.6743 H       1  LIG1       0.17000000000000004
     19 H          -2.1004    2.2320    1.6731 H       1  LIG1      0.44999999999999996
     20 H          -1.5156    3.4751    0.7429 H       1  LIG1      0.45999999999999996
     21 H          -1.2724    1.8754    0.2791 H       1  LIG1      0.43000000000000005
     22 H           0.9082   -1.3655   -3.6553 H       1  LIG1       0.45999999999999996
     23 H          -2.3352   -2.2260   -0.5959 H       1  LIG1       0.45999999999999996
     24 H           2.0879    0.2005    2.6431 H       1  LIG1       0.43999999999999995
@<TRIPOS>BOND
     1    22    10    1
     2    10     6    1
     3    14     2    1
     4     6     2   ar
     5     6     7   ar
     6     2     1   ar
     7    11     7    1
     8    11    23    1
     9     7     3   ar
    10     1    13    1
    11     1     5   ar
    12    21     9    1
    13     3     5   ar
    14     3    15    1
    15     5     8    1
    16    20     9    1
    17     9    19    1
    18     9     4    1
    19    17     4    1
    20     4     8    1
    21     4    16    1
    22     8    12    1
    23     8    18    1
    24    12    24    1
