@<TRIPOS>MOLECULE
SGNBVLSWZMBQTH-ZRUUVFCLSA-N	6045231	-1170.5122751398308
 77 80 0 0 0
SMALL
MULLIKEN NwChem

@<TRIPOS>ATOM
      1 C          -5.2844   -1.0792    3.5736 C.3     1  LIG1      -0.45999999999999996
      2 C          -4.9057   -1.7561    1.1827 C.3     1  LIG1      -0.46999999999999975
      3 C          -3.0116   -2.7766    4.4555 C.3     1  LIG1      -0.4800000000000004
      4 C           0.3024   -4.2128    2.4199 C.3     1  LIG1      -0.4800000000000004
      5 C           0.8610    4.1065   -0.4346 C.3     1  LIG1      -0.4900000000000002
      6 C          -1.1179   -0.7215   -0.3203 C.3     1  LIG1      -0.5099999999999998
      7 C          -2.8609   -3.8563    2.1686 C.3     1  LIG1      -0.29000000000000004
      8 C          -1.7732   -3.6237    1.1058 C.3     1  LIG1      -0.29000000000000004
      9 C           1.0058    2.1075   -3.4250 C.2     1  LIG1      -0.23000000000000043
     10 C           0.7485    0.7035   -2.9349 C.3     1  LIG1      -0.3099999999999996
     11 C           0.6566   -3.2199   -0.7463 C.3     1  LIG1      -0.2999999999999998
     12 C           1.1726   -2.1644   -1.7719 C.3     1  LIG1      -0.2999999999999998
     13 C           3.7706    4.4695   -1.5210 C.3     1  LIG1      -0.28000000000000025
     14 C           1.5428    1.2308    0.7875 C.3     1  LIG1      -0.29000000000000004
     15 C           3.1948    3.2001   -0.8700 C.3     1  LIG1      -0.29000000000000004
     16 C           0.6743    0.0516    1.3055 C.3     1  LIG1      -0.2999999999999998
     17 C           1.9553    4.4011   -3.2842 C.3     1  LIG1      -0.3700000000000001
     18 C          -4.7594   -2.1894    2.6504 C.3     1  LIG1      -0.07000000000000028
     19 C          -3.2925   -2.5837    2.9572 C.3     1  LIG1      -0.04999999999999982
     20 C          -0.4324   -3.0919    1.6619 C.3     1  LIG1      -0.08000000000000007
     21 C           1.4634    3.1132   -2.6638 C.2     1  LIG1      0.16999999999999993
     22 C           3.4676    4.5417   -3.0160 C.3     1  LIG1       0.15000000000000036
     23 C           1.5178    0.4807   -1.6290 C.3     1  LIG1      -0.09999999999999964
     24 C           0.5188   -2.4672    0.6082 C.3     1  LIG1      -0.09999999999999964
     25 C           1.3825   -0.8898   -0.9324 C.3     1  LIG1      -0.11000000000000032
     26 C           1.1571    1.6239   -0.6490 C.3     1  LIG1      -0.11000000000000032
     27 C           1.6785    3.0012   -1.1503 C.3     1  LIG1      0.040000000000000036
     28 C           0.3172   -0.9771    0.1929 C.3     1  LIG1      0.11000000000000032
     29 O           3.9812    5.7885   -3.4847 O.3     1  LIG1      -0.6799999999999997
     30 H          -4.6221   -0.2036    3.5458 H       1  LIG1          0.14
     31 H          -5.3601   -1.4082    4.6142 H       1  LIG1       0.15000000000000002
     32 H          -6.2817   -0.7501    3.2588 H       1  LIG1          0.14
     33 H          -4.3389   -0.8341    0.9966 H       1  LIG1       0.15000000000000002
     34 H          -4.5349   -2.5178    0.4863 H       1  LIG1       0.15000000000000002
     35 H          -5.9541   -1.5581    0.9298 H       1  LIG1          0.14
     36 H          -3.6612   -3.5534    4.8801 H       1  LIG1          0.14
     37 H          -1.9726   -3.0944    4.6052 H       1  LIG1       0.15000000000000002
     38 H          -3.1655   -1.8581    5.0310 H       1  LIG1          0.14
     39 H           0.6890   -4.9605    1.7166 H       1  LIG1          0.14
     40 H           1.1501   -3.8212    2.9928 H       1  LIG1          0.14
     41 H          -0.3589   -4.7326    3.1203 H       1  LIG1       0.15000000000000002
     42 H          -0.2040    3.9995   -0.6664 H       1  LIG1       0.15000000000000002
     43 H           0.9823    4.0374    0.6517 H       1  LIG1       0.15000000000000002
     44 H           1.1628    5.1146   -0.7264 H       1  LIG1       0.16000000000000003
     45 H          -1.4104   -1.4194   -1.1120 H       1  LIG1       0.15000000000000002
     46 H          -1.8352   -0.8243    0.4996 H       1  LIG1       0.16000000000000003
     47 H          -1.2396    0.2868   -0.7214 H       1  LIG1       0.15000000000000002
     48 H          -2.5220   -4.6240    2.8766 H       1  LIG1          0.13
     49 H          -3.7360   -4.2961    1.6710 H       1  LIG1          0.13
     50 H          -1.5859   -4.5701    0.5812 H       1  LIG1          0.13
     51 H          -2.1689   -2.9351    0.3570 H       1  LIG1       0.15000000000000002
     52 H           0.8730    2.2823   -4.4932 H       1  LIG1          0.12
     53 H          -0.3279    0.5146   -2.8001 H       1  LIG1       0.15000000000000002
     54 H           1.0806   -0.0074   -3.7018 H       1  LIG1          0.14
     55 H          -0.3073   -3.6182   -1.0740 H       1  LIG1          0.14
     56 H           1.3341   -4.0748   -0.6561 H       1  LIG1          0.13
     57 H           0.4276   -1.9979   -2.5576 H       1  LIG1          0.14
     58 H           2.0943   -2.4782   -2.2732 H       1  LIG1          0.13
     59 H           3.3568    5.3685   -1.0494 H       1  LIG1          0.14
     60 H           4.8558    4.5157   -1.3816 H       1  LIG1          0.14
     61 H           1.4404    2.0782    1.4722 H       1  LIG1          0.14
     62 H           2.6040    0.9485    0.8126 H       1  LIG1          0.14
     63 H           3.3689    3.2310    0.2134 H       1  LIG1          0.14
     64 H           3.7417    2.3281   -1.2486 H       1  LIG1          0.14
     65 H          -0.2491    0.4494    1.7451 H       1  LIG1          0.13
     66 H           1.2086   -0.4498    2.1239 H       1  LIG1          0.13
     67 H           1.4605    5.2887   -2.8692 H       1  LIG1          0.14
     68 H           1.7672    4.4041   -4.3648 H       1  LIG1       0.15000000000000002
     69 H          -5.3829   -3.0826    2.8075 H       1  LIG1          0.12
     70 H          -2.6764   -1.7358    2.6238 H       1  LIG1          0.13
     71 H          -0.6551   -2.2946    2.3852 H       1  LIG1          0.13
     72 H           3.9787    3.7013   -3.5202 H       1  LIG1          0.12
     73 H           2.5805    0.5929   -1.8875 H       1  LIG1          0.12
     74 H           1.5151   -2.4841    1.0745 H       1  LIG1       0.10999999999999999
     75 H           2.3376   -1.0344   -0.4061 H       1  LIG1          0.12
     76 H           0.0641    1.7217   -0.6653 H       1  LIG1          0.13
     77 H           3.8160    5.8318   -4.4389 H       1  LIG1       0.42000000000000004
@<TRIPOS>BOND
     1    52     9    1
     2    77    29    1
     3    68    17    1
     4    54    10    1
     5    72    22    1
     6    29    22    1
     7     9    10    1
     8     9    21    2
     9    17    22    1
    10    17    67    1
    11    17    21    1
    12    22    13    1
    13    10    53    1
    14    10    23    1
    15    21    27    1
    16    57    12    1
    17    58    12    1
    18    73    23    1
    19    12    25    1
    20    12    11    1
    21    23    25    1
    22    23    26    1
    23    13    60    1
    24    13    59    1
    25    13    15    1
    26    64    15    1
    27    27    15    1
    28    27    26    1
    29    27     5    1
    30    45     6    1
    31    55    11    1
    32    25    75    1
    33    25    28    1
    34    15    63    1
    35    11    56    1
    36    11    24    1
    37    44     5    1
    38    47     6    1
    39    42     5    1
    40    76    26    1
    41    26    14    1
    42     5    43    1
    43     6    28    1
    44     6    46    1
    45    28    24    1
    46    28    16    1
    47    51     8    1
    48    34     2    1
    49    50     8    1
    50    24    74    1
    51    24    20    1
    52    14    62    1
    53    14    16    1
    54    14    61    1
    55    35     2    1
    56    33     2    1
    57     8    20    1
    58     8     7    1
    59     2    18    1
    60    16    65    1
    61    16    66    1
    62    20    71    1
    63    20     4    1
    64    49     7    1
    65    39     4    1
    66     7    48    1
    67     7    19    1
    68     4    40    1
    69     4    41    1
    70    70    19    1
    71    18    69    1
    72    18    19    1
    73    18     1    1
    74    19     3    1
    75    32     1    1
    76    30     1    1
    77     1    31    1
    78     3    37    1
    79     3    36    1
    80     3    38    1
