@<TRIPOS>MOLECULE
SGTCGCCQZOUMJJ-YMILTQATSA-N	6045232	-1297.2425481235455
 43 45 0 0 0
SMALL
MULLIKEN NwChem

@<TRIPOS>ATOM
      1 C           1.6785    1.3980   -2.9479 C.3     1  LIG1       -0.2400000000000002
      2 C           4.4846    1.4179    1.4864 C.ar    1  LIG1      -0.1200000000000001
      3 C           4.8646    1.2261    2.7709 C.ar    1  LIG1       -0.2400000000000002
      4 C           2.7839    1.0415   -0.3259 C.ar    1  LIG1      -0.29000000000000004
      5 C           1.2220   -0.3826    1.5259 C.ar    1  LIG1       -0.2400000000000002
      6 C          -2.1664   -2.8780   -1.3175 C.3     1  LIG1       -0.05999999999999961
      7 C           3.2388    0.8841    1.0007 C.ar    1  LIG1       0.1200000000000001
      8 C           2.4442    0.1705    1.9142 C.ar    1  LIG1       0.3200000000000003
      9 C           1.5678    0.5034   -0.7169 C.ar    1  LIG1       0.3799999999999999
     10 C           0.7833   -0.2180    0.2196 C.ar    1  LIG1       0.3200000000000003
     11 C          -3.1113   -1.8225   -0.7257 C.3     1  LIG1       0.08999999999999986
     12 C           4.0400    0.4747    3.7131 C.ar    1  LIG1       0.5999999999999996
     13 C          -3.6143   -0.8013   -1.7532 C.3     1  LIG1       0.09999999999999964
     14 C          -2.5881    0.3119   -2.0379 C.3     1  LIG1       0.11000000000000032
     15 C          -2.0910    0.9106   -0.7047 C.3     1  LIG1       0.04999999999999982
     16 C          -1.6333   -0.1898    0.2703 C.3     1  LIG1       0.3099999999999996
     17 O          -2.9529   -3.6924   -2.1903 O.3     1  LIG1      -0.6699999999999999
     18 O           4.3029    0.2476    4.8694 O.2     1  LIG1      -0.5299999999999994
     19 O          -4.7901   -0.1234   -1.2732 O.3     1  LIG1      -0.6799999999999997
     20 O          -1.5536   -0.2030   -2.8658 O.3     1  LIG1      -0.7200000000000006
     21 O          -3.0870    1.7005   -0.0858 O.3     1  LIG1      -0.6799999999999997
     22 O           1.0199    0.6093   -1.9640 O.3     1  LIG1      -0.5500000000000007
     23 O           2.8331   -0.0204    3.2078 O.2     1  LIG1      -0.5399999999999991
     24 O          -0.3849   -0.7771   -0.2192 O.3     1  LIG1      -0.5800000000000001
     25 O          -2.5617   -1.2012    0.4516 O.3     1  LIG1      -0.5099999999999998
     26 H           1.0226    1.3766   -3.8193 H       1  LIG1       0.18999999999999995
     27 H           2.6567    0.9728   -3.2060 H       1  LIG1       0.18000000000000005
     28 H           1.8053    2.4327   -2.6053 H       1  LIG1       0.18000000000000005
     29 H           5.1146    1.9812    0.8020 H       1  LIG1       0.19999999999999996
     30 H           5.7941    1.6134    3.1711 H       1  LIG1       0.18999999999999995
     31 H           3.3991    1.5966   -1.0254 H       1  LIG1       0.19999999999999996
     32 H           0.6278   -0.9458    2.2368 H       1  LIG1       0.18999999999999995
     33 H          -1.3377   -2.4023   -1.8430 H       1  LIG1       0.17000000000000004
     34 H          -1.7599   -3.4745   -0.4907 H       1  LIG1          0.14
     35 H          -3.9792   -2.3760   -0.3437 H       1  LIG1       0.17000000000000004
     36 H          -3.8313   -1.3370   -2.6850 H       1  LIG1       0.16000000000000003
     37 H          -3.1105    1.1132   -2.5759 H       1  LIG1       0.15000000000000002
     38 H          -1.2356    1.5661   -0.9007 H       1  LIG1       0.17000000000000004
     39 H          -1.4588    0.2463    1.2576 H       1  LIG1       0.18000000000000005
     40 H          -2.4669   -3.7980   -3.0199 H       1  LIG1       0.43999999999999995
     41 H          -5.4244   -0.7893   -0.9652 H       1  LIG1       0.43999999999999995
     42 H          -0.7087   -0.1548   -2.3842 H       1  LIG1          0.47
     43 H          -3.9208    1.1970   -0.1607 H       1  LIG1       0.43000000000000005
@<TRIPOS>BOND
     1    26     1    1
     2    27     1    1
     3    40    17    1
     4     1    28    1
     5     1    22    1
     6    20    42    1
     7    20    14    1
     8    36    13    1
     9    37    14    1
    10    17     6    1
    11    14    13    1
    12    14    15    1
    13    22     9    1
    14    33     6    1
    15    13    19    1
    16    13    11    1
    17     6    11    1
    18     6    34    1
    19    19    41    1
    20    31     4    1
    21    38    15    1
    22    11    35    1
    23    11    25    1
    24     9     4   ar
    25     9    10   ar
    26    15    21    1
    27    15    16    1
    28     4     7   ar
    29    24    10    1
    30    24    16    1
    31    43    21    1
    32    10     5   ar
    33    16    25    1
    34    16    39    1
    35    29     2    1
    36     7     2   ar
    37     7     8   ar
    38     2     3   ar
    39     5     8   ar
    40     5    32    1
    41     8    23   ar
    42     3    30    1
    43     3    12   ar
    44    23    12   ar
    45    12    18    2
