@<TRIPOS>MOLECULE
SGYMGUGIGTWWLU-ROLXFIACSA-M	6119250	-1097.2922585438262
 35 33 0 0 0
SMALL
MULLIKEN NwChem

@<TRIPOS>ATOM
      1 C           0.3923   -0.9856   -2.8350 C.3     1  UNK1      -0.3200000000000003
      2 C          -0.2705    0.3389   -3.2177 C.3     1  UNK1       -0.04999999999999982
      3 C          -1.9242    0.6035    0.8154 C.3     1  UNK1      -0.33000000000000007
      4 C          -0.4689   -1.9347   -1.9488 C.3     1  UNK1       -0.05999999999999961
      5 C          -0.6437    1.3805    0.8780 C.3     1  UNK1       -0.04999999999999982
      6 C           0.4411   -1.7812    2.9599 C.1     1  LIG1          0.79
      7 C           0.0713   -2.1481   -0.5282 C.2     1  UNK1       0.6200000000000001
      8 C          -0.3911    1.7063    2.3573 C.2     1  UNK1       0.5899999999999999
      9 C           1.3098    1.1663   -0.6542 C.2     0  UNK0       0.5999999999999996
     10 N          -1.8815   -1.5727   -1.9662 N.3     1  UNK1      -0.7699999999999996
     11 N           2.5801    1.0694   -0.8020 N.pl3   0  UNK0      -0.7199999999999998
     12 N           0.5183    0.6532    0.3618 N.pl3   1  UNK1      -0.6100000000000003
     13 N           0.5871    1.8954   -1.6194 N.4     0  UNK0      -0.3799999999999999
     14 O          -0.5985   -1.7757    3.4816 O.2     1  LIG1      -0.3800000000000008
     15 O           1.5082   -1.7966    2.4668 O.2     1  LIG1      -0.41000000000000014
     16 O          -0.6417   -2.3260    0.4440 O.2     1  UNK1      -0.5299999999999994
     17 O           1.4131   -2.2333   -0.4702 O.3     1  UNK1      -0.5999999999999996
     18 O           0.3913    1.1115    3.0710 O.2     1  UNK1         -0.5
     19 O          -1.1886    2.6983    2.7941 O.3     1  UNK1      -0.5700000000000003
     20 O          -0.5686    1.2489   -2.1406 O.3     0  UNK0      -0.41000000000000014
     21 H           1.3657   -0.8054   -2.3750 H       1  UNK1       0.18000000000000005
     22 H           0.5928   -1.4915   -3.7874 H       1  UNK1       0.17000000000000004
     23 H           0.3611    0.8570   -3.9561 H       1  UNK1       0.17000000000000004
     24 H          -1.2487    0.1569   -3.6689 H       1  UNK1       0.17000000000000004
     25 H          -2.8661    1.1378    0.8712 H       1  UNK1       0.18000000000000005
     26 H          -1.9003   -0.4703    0.9510 H       1  UNK1       0.18999999999999995
     27 H          -0.3879   -2.9403   -2.3881 H       1  UNK1       0.19999999999999996
     28 H          -0.7513    2.3230    0.3336 H       1  UNK1       0.20999999999999996
     29 H          -2.3947   -2.2419   -1.3947 H       1  UNK1       0.32999999999999996
     30 H          -1.9900   -0.6732   -1.4947 H       1  UNK1       0.32999999999999996
     31 H           3.0268    0.7003    0.0402 H       0  UNK0       0.31000000000000005
     32 H           1.0524    0.1964    1.0927 H       1  UNK1          0.36
     33 H           1.2129    2.1669   -2.3783 H       0  UNK0          0.35
     34 H           1.6515   -2.3839    0.4662 H       1  UNK1       0.45999999999999996
     35 H          -1.0223    2.7967    3.7511 H       1  UNK1       0.44999999999999996
@<TRIPOS>BOND
     1    23     2    1
     2    22     1    1
     3    24     2    1
     4     2     1    1
     5     2    20    1
     6     1    21    1
     7     1     4    1
     8    27     4    1
     9    33    13    1
    10    20    13    1
    11    10     4    1
    12    10    30    1
    13    10    29    1
    14     4     7    1
    15    13     9    1
    16    11     9    2
    17    11    31    1
    18     9    12    1
    19     7    17    1
    20     7    16    2
    21    17    34    1
    22    28     5    1
    23    12     5    1
    24    12    32    1
    25     3    25    1
    26     3     5    1
    27     3    26    1
    28     5     8    1
    29     8    19    1
    30     8    18    2
    31    15     6    2
    32    19    35    1
    33     6    14    2
