@<TRIPOS>MOLECULE
SHZGCJCMOBCMKK-KGJVWPDLSA-N	6045235	-611.8124320637302
 23 23 0 0 0
SMALL
MULLIKEN NwChem

@<TRIPOS>ATOM
      1 C           1.4573    0.4469    2.6467 C.3     1  LIG1      -0.46999999999999975
      2 C           1.0106    0.6215    1.2039 C.3     1  LIG1       0.09999999999999964
      3 C           1.3361   -0.5825    0.3065 C.3     1  LIG1       0.08999999999999986
      4 C           0.7795   -0.3350   -1.1015 C.3     1  LIG1       0.08000000000000007
      5 C          -0.7077    0.0508   -1.0497 C.3     1  LIG1       0.08999999999999986
      6 C          -0.9326    1.2063   -0.0694 C.3     1  LIG1       0.33000000000000007
      7 O           0.7748   -1.7921    0.8300 O.3     1  LIG1      -0.6799999999999997
      8 O           0.9512   -1.4675   -1.9449 O.3     1  LIG1      -0.6799999999999997
      9 O          -1.1781    0.4047   -2.3321 O.3     1  LIG1      -0.6799999999999997
     10 O          -2.2606    1.5678    0.0807 O.3     1  LIG1      -0.6500000000000004
     11 O          -0.4136    0.8043    1.2091 O.3     1  LIG1      -0.5299999999999994
     12 H           1.1431    1.3085    3.2417 H       1  LIG1       0.17000000000000004
     13 H           2.5476    0.3575    2.6971 H       1  LIG1       0.17000000000000004
     14 H           1.0202   -0.4580    3.0774 H       1  LIG1       0.16000000000000003
     15 H           1.4903    1.5160    0.7710 H       1  LIG1       0.16000000000000003
     16 H           2.4173   -0.7480    0.2526 H       1  LIG1       0.16000000000000003
     17 H           1.3248    0.4899   -1.5772 H       1  LIG1       0.16000000000000003
     18 H          -1.2697   -0.8175   -0.6512 H       1  LIG1          0.14
     19 H          -0.4068    2.1076   -0.4158 H       1  LIG1       0.15000000000000002
     20 H          -0.0910   -1.5456    1.2004 H       1  LIG1       0.43000000000000005
     21 H           0.7398   -2.2350   -1.3819 H       1  LIG1       0.42000000000000004
     22 H          -0.8079   -0.2634   -2.9354 H       1  LIG1       0.43000000000000005
     23 H          -2.7843    0.7589    0.2010 H       1  LIG1       0.43999999999999995
@<TRIPOS>BOND
     1    22     9    1
     2     9     5    1
     3     8    21    1
     4     8     4    1
     5    17     4    1
     6     4     5    1
     7     4     3    1
     8     5    18    1
     9     5     6    1
    10    19     6    1
    11     6    10    1
    12     6    11    1
    13    10    23    1
    14    16     3    1
    15     3     7    1
    16     3     2    1
    17    15     2    1
    18     7    20    1
    19     2    11    1
    20     2     1    1
    21     1    13    1
    22     1    14    1
    23     1    12    1
