@<TRIPOS>MOLECULE
SHZGCJCMOBCMKK-SXUWKVJYSA-N	6045236	-611.8097723830032
 23 23 0 0 0
SMALL
MULLIKEN NwChem

@<TRIPOS>ATOM
      1 C          -2.1112    1.9827   -0.7490 C.3     1  LIG1      -0.46999999999999975
      2 C          -0.9396    1.2463   -0.1199 C.3     1  LIG1       0.07000000000000028
      3 C          -1.2941   -0.1406    0.4259 C.3     1  LIG1       0.09999999999999964
      4 C          -0.0440   -0.8481    0.9869 C.3     1  LIG1       0.08999999999999986
      5 C           1.0699   -0.8723   -0.0831 C.3     1  LIG1       0.08000000000000007
      6 C           1.2804    0.5262   -0.7021 C.3     1  LIG1       0.29000000000000004
      7 O          -1.8791   -0.9605   -0.5925 O.3     1  LIG1      -0.6699999999999999
      8 O          -0.3715   -2.1433    1.4427 O.3     1  LIG1      -0.6799999999999997
      9 O           2.2947   -1.3863    0.3962 O.3     1  LIG1      -0.6699999999999999
     10 O           2.0034    1.3680    0.1843 O.3     1  LIG1      -0.6600000000000001
     11 O           0.0601    1.0930   -1.1462 O.3     1  LIG1      -0.5099999999999998
     12 H          -2.8795    2.1831    0.0050 H       1  LIG1       0.17000000000000004
     13 H          -2.5592    1.3798   -1.5433 H       1  LIG1       0.16000000000000003
     14 H          -1.7714    2.9314   -1.1730 H       1  LIG1       0.17000000000000004
     15 H          -0.5364    1.8586    0.7038 H       1  LIG1       0.15000000000000002
     16 H          -2.0471   -0.0622    1.2174 H       1  LIG1       0.17000000000000004
     17 H           0.3195   -0.3011    1.8691 H       1  LIG1       0.15000000000000002
     18 H           0.7430   -1.5495   -0.8813 H       1  LIG1       0.16000000000000003
     19 H           1.9133    0.4551   -1.5885 H       1  LIG1       0.18000000000000005
     20 H          -1.3934   -0.7675   -1.4131 H       1  LIG1       0.43000000000000005
     21 H          -0.9279   -2.5292    0.7427 H       1  LIG1       0.42000000000000004
     22 H           2.7640   -0.6360    0.7999 H       1  LIG1       0.42000000000000004
     23 H           1.4879    1.4936    0.9971 H       1  LIG1       0.43999999999999995
@<TRIPOS>BOND
     1    19     6    1
     2    13     1    1
     3    20     7    1
     4    14     1    1
     5    11     6    1
     6    11     2    1
     7    18     5    1
     8     1     2    1
     9     1    12    1
    10     6     5    1
    11     6    10    1
    12     7     3    1
    13     2     3    1
    14     2    15    1
    15     5     9    1
    16     5     4    1
    17    10    23    1
    18     9    22    1
    19     3     4    1
    20     3    16    1
    21    21     8    1
    22     4     8    1
    23     4    17    1
