@<TRIPOS>MOLECULE
SIGQQUBJQXSAMW-ZCFIWIBFSA-J	11084001	-1670.2030407097845
 28 27 0 0 0
SMALL
MULLIKEN NwChem

@<TRIPOS>ATOM
      1 C          -3.2996   -1.8813    0.3386 C.3     1  LIG1      -0.46999999999999975
      2 C          -1.9084    0.2020   -0.1641 C.3     1  LIG1       -0.29000000000000004
      3 C          -0.6435   -0.3035    0.5683 C.3     1  LIG1       -0.009999999999999787
      4 C          -4.3954    0.1443   -0.7123 C.3     1  LIG1       -0.3899999999999997
      5 C          -5.8837   -0.1819   -0.3492 C.2     1  LIG1          0.54
      6 C          -3.2915   -0.3395    0.2732 C.3     1  LIG1       0.3200000000000003
      7 O          -6.6958   -0.2654   -1.3041 O.co2   1  LIG1      -0.6699999999999999
      8 O          -6.1661   -0.2933    0.8916 O.co2   1  LIG1      -0.6699999999999999
      9 O          -3.6056    0.1771    1.5769 O.3     1  LIG1      -0.7400000000000002
     10 O           4.7415    1.0512   -2.2217 O.2     1  LIG1      -0.7699999999999996
     11 O           4.8786    2.4045   -0.0172 O.3     1  LIG1      -0.7699999999999996
     12 O           5.5226   -0.1170   -0.0319 O.3     1  LIG1      -0.7799999999999994
     13 O           2.0944   -0.3516    1.9649 O.3     1  LIG1      -0.7400000000000002
     14 O           1.9058   -1.7966   -0.1963 O.2     1  LIG1      -0.7400000000000002
     15 O           0.4737    0.3605    0.0518 O.3     1  LIG1      -0.6400000000000006
     16 O           2.9373    0.6183   -0.3355 O.3     1  LIG1      -0.6899999999999995
     17 P           4.7371    1.0269   -0.6843 P.3     1  LIG1       0.9399999999999995
     18 P           2.0300   -0.4182    0.4449 P.3     1  LIG1       1.0099999999999998
     19 H          -4.3040   -2.2288    0.6130 H       1  LIG1          0.14
     20 H          -2.5825   -2.2229    1.0903 H       1  LIG1       0.15000000000000002
     21 H          -3.0187   -2.3244   -0.6267 H       1  LIG1          0.14
     22 H          -1.9400    1.2971   -0.0711 H       1  LIG1          0.13
     23 H          -1.7723   -0.0144   -1.2345 H       1  LIG1          0.13
     24 H          -0.7649   -0.1379    1.6566 H       1  LIG1       0.09999999999999998
     25 H          -0.5425   -1.3935    0.4203 H       1  LIG1          0.12
     26 H          -4.2019   -0.2367   -1.7231 H       1  LIG1          0.13
     27 H          -4.3163    1.2415   -0.7733 H       1  LIG1          0.14
     28 H          -4.5858    0.0325    1.6203 H       1  LIG1            0.4
@<TRIPOS>BOND
     1    10    17    2
     2    26     4    1
     3     7     5   ar
     4    23     2    1
     5    27     4    1
     6     4     5    1
     7     4     6    1
     8    17    16    1
     9    17    12    1
    10    17    11    1
    11    21     1    1
    12     5     8   ar
    13    16    18    1
    14    14    18    2
    15     2    22    1
    16     2     6    1
    17     2     3    1
    18    15    18    1
    19    15     3    1
    20     6     1    1
    21     6     9    1
    22     1    19    1
    23     1    20    1
    24    25     3    1
    25    18    13    1
    26     3    24    1
    27     9    28    1
