@<TRIPOS>MOLECULE
SIKJAQJRHWYJAI-UHFFFAOYSA-N	6045239	-363.7258378528007
 16 17 0 0 0
SMALL
MULLIKEN NwChem

@<TRIPOS>ATOM
      1 C           2.1548   -0.7023   -0.0648 C.ar    1  LIG1      -0.16999999999999993
      2 C           2.1371    0.7085   -0.0724 C.ar    1  LIG1      -0.1900000000000004
      3 C           0.9751   -1.4343   -0.0224 C.ar    1  LIG1      -0.2400000000000002
      4 C           0.9396    1.4143   -0.0375 C.ar    1  LIG1      -0.1900000000000004
      5 C          -1.6288   -1.1618    0.0579 C.ar    1  LIG1      -0.2599999999999998
      6 C          -2.3892   -0.0226    0.0749 C.ar    1  LIG1       0.03000000000000025
      7 C          -0.2529   -0.7512    0.0130 C.ar    1  LIG1      0.09999999999999964
      8 C          -0.2455    0.6724    0.0046 C.ar    1  LIG1       0.28000000000000025
      9 N          -1.5620    1.0860    0.0433 N.ar    1  LIG1      -0.6699999999999999
     10 H           3.1093   -1.2208   -0.0932 H       1  LIG1          0.14
     11 H           3.0764    1.2537   -0.1064 H       1  LIG1       0.15000000000000002
     12 H           0.9959   -2.5210   -0.0168 H       1  LIG1       0.15000000000000002
     13 H           0.9253    2.5013   -0.0433 H       1  LIG1       0.16000000000000003
     14 H          -2.0024   -2.1762    0.0748 H       1  LIG1       0.15000000000000002
     15 H          -3.4631    0.0981    0.1067 H       1  LIG1       0.18000000000000005
     16 H          -1.8727    2.0446    0.0469 H       1  LIG1           0.38
@<TRIPOS>BOND
     1    11     2    1
     2    10     1    1
     3     2     1   ar
     4     2     4   ar
     5     1     3   ar
     6    13     4    1
     7     4     8   ar
     8     3    12    1
     9     3     7   ar
    10     8     7   ar
    11     8     9   ar
    12     7     5   ar
    13     9    16    1
    14     9     6   ar
    15     5    14    1
    16     5     6   ar
    17     6    15    1
