@<TRIPOS>MOLECULE
SJPDNXKPBQHPMZ-PUXRVUTHSA-N	6045240	-1324.302462821731
 84 87 0 0 0
SMALL
MULLIKEN NwChem

@<TRIPOS>ATOM
      1 C           4.1779    3.5849   -2.8988 C.3     1  LIG1      -0.45999999999999996
      2 C           2.7277    5.6173   -2.5226 C.3     1  LIG1      -0.45999999999999996
      3 C          -0.9570    2.2472   -4.9805 C.3     1  LIG1      -0.46999999999999975
      4 C           0.5803   -3.7248    4.6902 C.3     1  LIG1      -0.45999999999999996
      5 C          -1.8876   -3.5662    4.8705 C.3     1  LIG1      -0.4800000000000004
      6 C          -3.0872   -1.4166    2.7003 C.3     1  LIG1      -0.4900000000000002
      7 C           0.5713    1.6801   -0.7594 C.3     1  LIG1         -0.5
      8 C           2.0815    2.6036   -4.9747 C.3     1  LIG1      -0.28000000000000025
      9 C           2.1517    4.0256   -4.3927 C.3     1  LIG1      -0.2599999999999998
     10 C           1.3249    1.5668   -4.1202 C.3     1  LIG1      -0.29000000000000004
     11 C          -0.2100   -2.7121    0.6101 C.3     1  LIG1      -0.33000000000000007
     12 C          -0.7267   -3.2912    1.9282 C.3     1  LIG1      -0.29000000000000004
     13 C          -1.7389    0.8763    0.9660 C.3     1  LIG1      -0.3600000000000003
     14 C          -0.9141   -0.5375   -3.4017 C.3     1  LIG1      -0.2999999999999998
     15 C          -1.4238   -0.4264    5.1881 C.3     1  LIG1      -0.29000000000000004
     16 C          -1.3321    0.0753    3.7391 C.3     1  LIG1      -0.3099999999999996
     17 C          -1.8422    1.1363   -0.5308 C.3     1  LIG1      -0.2999999999999998
     18 C          -1.1360   -1.4277   -2.1750 C.3     1  LIG1      -0.28000000000000025
     19 C           1.2283   -1.0422   -1.3722 C.3     1  LIG1       -0.07000000000000028
     20 C           2.7537    4.1519   -2.9800 C.3     1  LIG1      -0.07000000000000028
     21 C          -0.1176    1.9485   -3.7225 C.3     1  LIG1      -0.08000000000000007
     22 C          -0.8789    0.9098   -2.8473 C.3     1  LIG1      -0.11000000000000032
     23 C          -1.2550   -0.5276    1.2718 C.2     1  LIG1      0.05999999999999961
     24 C          -0.6284   -1.2755    0.3388 C.2     1  LIG1      0.07000000000000028
     25 C          -0.6160   -2.2293    3.0257 C.3     1  LIG1      -0.1299999999999999
     26 C          -0.4416   -1.5709    5.4679 C.3     1  LIG1       0.1299999999999999
     27 C          -0.6206   -2.7717    4.4916 C.3     1  LIG1      0.08000000000000007
     28 C          -1.5803   -1.0446    2.6914 C.3     1  LIG1      0.05999999999999961
     29 C          -0.5513    0.7714   -1.2964 C.3     1  LIG1      0.08999999999999986
     30 C          -0.2710   -0.7641   -1.0679 C.3     1  LIG1       0.009999999999999787
     31 O           1.4308   -2.4077   -1.7413 O.3     1  LIG1      -0.6699999999999999
     32 O           0.9035   -1.0740    5.4794 O.3     1  LIG1      -0.6899999999999995
     33 H           4.8409    4.0950   -3.6104 H       1  LIG1          0.14
     34 H           4.2068    2.5135   -3.1258 H       1  LIG1       0.15000000000000002
     35 H           4.5978    3.7223   -1.8953 H       1  LIG1          0.14
     36 H           3.3514    6.2411   -3.1764 H       1  LIG1          0.14
     37 H           1.7095    6.0243   -2.5469 H       1  LIG1          0.14
     38 H           3.1083    5.7224   -1.4996 H       1  LIG1          0.14
     39 H          -1.0017    1.3706   -5.6390 H       1  LIG1          0.14
     40 H          -1.9858    2.5152   -4.7136 H       1  LIG1          0.14
     41 H          -0.5425    3.0773   -5.5611 H       1  LIG1       0.15000000000000002
     42 H           1.5140   -3.2849    4.3296 H       1  LIG1          0.14
     43 H           0.7140   -3.9405    5.7565 H       1  LIG1          0.14
     44 H           0.4237   -4.6788    4.1768 H       1  LIG1       0.15000000000000002
     45 H          -2.7822   -2.9483    4.9592 H       1  LIG1       0.15000000000000002
     46 H          -2.0954   -4.3454    4.1293 H       1  LIG1       0.15000000000000002
     47 H          -1.7379   -4.0634    5.8366 H       1  LIG1          0.14
     48 H          -3.4742   -1.6004    3.7040 H       1  LIG1       0.15000000000000002
     49 H          -3.6785   -0.5966    2.2800 H       1  LIG1       0.15000000000000002
     50 H          -3.2899   -2.3021    2.0932 H       1  LIG1       0.15000000000000002
     51 H           0.7894    1.4438    0.2869 H       1  LIG1       0.15000000000000002
     52 H           1.5083    1.5884   -1.3084 H       1  LIG1       0.16000000000000003
     53 H           0.2701    2.7330   -0.8038 H       1  LIG1       0.15000000000000002
     54 H           1.6270    2.6605   -5.9716 H       1  LIG1          0.13
     55 H           3.0994    2.2271   -5.1400 H       1  LIG1          0.13
     56 H           1.1434    4.4623   -4.3800 H       1  LIG1          0.13
     57 H           2.7407    4.6524   -5.0790 H       1  LIG1          0.12
     58 H           1.3064    0.6240   -4.6814 H       1  LIG1          0.13
     59 H           1.9150    1.3679   -3.2203 H       1  LIG1       0.15000000000000002
     60 H          -0.5160   -3.3447   -0.2304 H       1  LIG1          0.14
     61 H           0.8862   -2.7698    0.6055 H       1  LIG1       0.15000000000000002
     62 H          -0.1445   -4.1843    2.1745 H       1  LIG1          0.14
     63 H          -1.7649   -3.6242    1.8210 H       1  LIG1          0.14
     64 H          -1.0858    1.6195    1.4440 H       1  LIG1       0.15000000000000002
     65 H          -2.7257    1.0386    1.4172 H       1  LIG1       0.15000000000000002
     66 H           0.0347   -0.8118   -3.8742 H       1  LIG1          0.14
     67 H          -1.6913   -0.6671   -4.1624 H       1  LIG1          0.14
     68 H          -1.1969    0.3936    5.8789 H       1  LIG1          0.14
     69 H          -2.4465   -0.7506    5.4111 H       1  LIG1       0.15000000000000002
     70 H          -2.0399    0.8994    3.6009 H       1  LIG1          0.14
     71 H          -0.3345    0.5070    3.5676 H       1  LIG1          0.14
     72 H          -2.0861    2.1906   -0.7214 H       1  LIG1          0.13
     73 H          -2.6781    0.5471   -0.9272 H       1  LIG1          0.14
     74 H          -0.8563   -2.4670   -2.3548 H       1  LIG1          0.14
     75 H          -2.1875   -1.4135   -1.8661 H       1  LIG1          0.13
     76 H           1.5591   -0.3987   -2.1945 H       1  LIG1          0.14
     77 H           1.8279   -0.7806   -0.4869 H       1  LIG1          0.14
     78 H           2.1234    3.5790   -2.2872 H       1  LIG1          0.14
     79 H          -0.0694    2.8778   -3.1386 H       1  LIG1          0.13
     80 H          -1.9156    1.2681   -2.8738 H       1  LIG1          0.13
     81 H           0.3909   -1.7926    2.9020 H       1  LIG1          0.12
     82 H          -0.5912   -1.9373    6.4910 H       1  LIG1          0.13
     83 H           2.3729   -2.5182   -1.9377 H       1  LIG1       0.42000000000000004
     84 H           1.1053   -0.7422    4.5912 H       1  LIG1       0.42000000000000004
@<TRIPOS>BOND
     1    54     8    1
     2    39     3    1
     3    41     3    1
     4    55     8    1
     5    57     9    1
     6     3    40    1
     7     3    21    1
     8     8     9    1
     9     8    10    1
    10    58    10    1
    11     9    56    1
    12     9    20    1
    13    67    14    1
    14    10    21    1
    15    10    59    1
    16    66    14    1
    17    21    79    1
    18    21    22    1
    19    33     1    1
    20    14    22    1
    21    14    18    1
    22    36     2    1
    23    34     1    1
    24    20     1    1
    25    20     2    1
    26    20    78    1
    27     1    35    1
    28    80    22    1
    29    22    29    1
    30    37     2    1
    31     2    38    1
    32    74    18    1
    33    76    19    1
    34    18    75    1
    35    18    30    1
    36    83    31    1
    37    31    19    1
    38    19    30    1
    39    19    77    1
    40    52     7    1
    41    29    30    1
    42    29     7    1
    43    29    17    1
    44    30    24    1
    45    73    17    1
    46    53     7    1
    47     7    51    1
    48    72    17    1
    49    17    13    1
    50    60    11    1
    51    24    11    1
    52    24    23    2
    53    61    11    1
    54    11    12    1
    55    13    23    1
    56    13    65    1
    57    13    64    1
    58    23    28    1
    59    63    12    1
    60    12    62    1
    61    12    25    1
    62    50     6    1
    63    49     6    1
    64    28     6    1
    65    28    25    1
    66    28    16    1
    67     6    48    1
    68    81    25    1
    69    25    27    1
    70    71    16    1
    71    70    16    1
    72    16    15    1
    73    46     5    1
    74    44     4    1
    75    42     4    1
    76    27     4    1
    77    27     5    1
    78    27    26    1
    79    84    32    1
    80     4    43    1
    81     5    45    1
    82     5    47    1
    83    15    69    1
    84    15    26    1
    85    15    68    1
    86    26    32    1
    87    26    82    1
