@<TRIPOS>MOLECULE
SJZRECIVHVDYJC-UHFFFAOYSA-M	6045241	-382.3708340164225
 14 13 0 0 0
SMALL
MULLIKEN NwChem

@<TRIPOS>ATOM
      1 C           0.0357    1.1930   -0.2913 C.3     1  LIG1            -0.25
      2 C          -0.4917    0.0309   -1.1394 C.3     1  LIG1       -0.3799999999999999
      3 C          -0.4084    1.0889    1.1649 C.3     1  LIG1       -0.040000000000000036
      4 C           0.1751   -1.3658   -0.8145 C.2     1  LIG1       0.5199999999999996
      5 O           0.2221    2.0675    2.0151 O.3     1  LIG1      -0.6799999999999997
      6 O          -0.3181   -2.3331   -1.4388 O.co2   1  LIG1      -0.6899999999999995
      7 O           1.1231   -1.3434    0.0184 O.co2   1  LIG1      -0.6699999999999999
      8 H          -0.2635    2.1756   -0.6902 H       1  LIG1          0.12
      9 H           1.1324    1.1373   -0.3076 H       1  LIG1          0.13
     10 H          -1.5818   -0.0754   -1.0294 H       1  LIG1          0.13
     11 H          -0.3232    0.2350   -2.2068 H       1  LIG1          0.14
     12 H          -1.4864    1.2768    1.2581 H       1  LIG1          0.14
     13 H          -0.1945    0.0718    1.5141 H       1  LIG1          0.13
     14 H           1.1690    1.8614    1.9667 H       1  LIG1       0.42000000000000004
@<TRIPOS>BOND
     1    11     2    1
     2     6     4   ar
     3     2    10    1
     4     2     4    1
     5     2     1    1
     6     4     7   ar
     7     8     1    1
     8     9     1    1
     9     1     3    1
    10     3    12    1
    11     3    13    1
    12     3     5    1
    13    14     5    1
