@<TRIPOS>MOLECULE
SKCBPEVYGOQGJN-TXICZTDVSA-M	11084000	-1119.8979073058351
 25 25 0 0 0
SMALL
MULLIKEN NwChem

@<TRIPOS>ATOM
      1 C           0.7778    0.9530    1.1080 C.3     1  LIG1       -0.07000000000000028
      2 C          -0.5200    0.1959    0.8109 C.3     1  LIG1       0.1200000000000001
      3 C          -0.8150   -0.1245   -0.6989 C.3     1  LIG1       0.040000000000000036
      4 C          -2.0609    0.7337   -0.9544 C.3     1  LIG1       0.13999999999999968
      5 C          -2.7258    0.7685    0.4197 C.3     1  LIG1       0.20000000000000018
      6 N          -3.7378    1.7954    0.5122 N.3     1  LIG1      -0.7599999999999998
      7 O          -1.0928   -1.4909   -0.8872 O.3     1  LIG1      -0.7200000000000006
      8 O          -2.9076    0.2744   -1.9863 O.3     1  LIG1      -0.6799999999999997
      9 O           1.5056   -1.9973   -0.2344 O.3     1  LIG1      -0.6999999999999993
     10 O           3.8438   -1.2739    0.4968 O.3     1  LIG1      -0.6999999999999993
     11 O           2.5944    0.2078   -1.2150 O.2     1  LIG1      -0.7100000000000009
     12 O           1.8878    0.0826    1.2617 O.3     1  LIG1      -0.5800000000000001
     13 O          -1.6328    0.9919    1.3045 O.3     1  LIG1      -0.5500000000000007
     14 P           2.3821   -0.7755   -0.0962 P.3     1  LIG1       1.1099999999999994
     15 H           0.6530    1.4788    2.0629 H       1  LIG1       0.16000000000000003
     16 H           0.9749    1.6991    0.3237 H       1  LIG1       0.15000000000000002
     17 H          -0.4940   -0.7595    1.3476 H       1  LIG1          0.14
     18 H           0.0235    0.1980   -1.3285 H       1  LIG1       0.16000000000000003
     19 H          -1.7145    1.7663   -1.1576 H       1  LIG1          0.14
     20 H          -3.2001   -0.2063    0.6134 H       1  LIG1          0.14
     21 H          -3.2650    2.6995    0.4613 H       1  LIG1       0.32999999999999996
     22 H          -4.1775    1.7594    1.4310 H       1  LIG1       0.33999999999999997
     23 H          -0.2064   -1.9089   -0.7321 H       1  LIG1       0.43999999999999995
     24 H          -3.7475    0.7423   -1.8394 H       1  LIG1       0.42000000000000004
     25 H           4.4649   -0.5658    0.2654 H       1  LIG1       0.44999999999999996
@<TRIPOS>BOND
     1     8    24    1
     2     8     4    1
     3    18     3    1
     4    11    14    2
     5    19     4    1
     6     4     3    1
     7     4     5    1
     8     7    23    1
     9     7     3    1
    10     3     2    1
    11     9    14    1
    12    14    10    1
    13    14    12    1
    14    25    10    1
    15    16     1    1
    16     5     6    1
    17     5    20    1
    18     5    13    1
    19    21     6    1
    20     6    22    1
    21     2     1    1
    22     2    13    1
    23     2    17    1
    24     1    12    1
    25     1    15    1
