@<TRIPOS>MOLECULE
SLQKYSPHBZMASJ-QKPORZECSA-N	6045244	-1169.322465220343
 75 78 0 0 0
SMALL
MULLIKEN NwChem

@<TRIPOS>ATOM
      1 C          -3.8542   -0.0512    4.7054 C.3     1  LIG1      -0.4800000000000004
      2 C          -3.2731   -2.2009    3.4700 C.3     1  LIG1      -0.46999999999999975
      3 C          -2.1770   -2.8856    6.4744 C.2     1  LIG1      -0.4400000000000004
      4 C          -0.3063    1.5738    3.8275 C.3     1  LIG1      -0.4800000000000004
      5 C           2.9263    1.4958   -3.4545 C.3     1  LIG1      -0.4900000000000002
      6 C          -1.2768    0.6386    0.6950 C.3     1  LIG1         -0.5
      7 C          -1.1088   -0.7424    5.8614 C.3     1  LIG1      -0.3600000000000003
      8 C          -0.0545   -0.7796    4.7214 C.3     1  LIG1      -0.2699999999999996
      9 C           1.6655   -1.3290   -3.8392 C.3     1  LIG1      -0.28000000000000025
     10 C           1.1612   -1.6788   -2.4347 C.3     1  LIG1      -0.33999999999999986
     11 C           0.9364   -1.7351    2.0897 C.3     1  LIG1      -0.2999999999999998
     12 C           1.5309   -1.7773    0.6813 C.3     1  LIG1      -0.29000000000000004
     13 C           0.7836    2.7212   -5.3370 C.3     1  LIG1      -0.29000000000000004
     14 C           0.9380    1.9429   -0.9512 C.3     1  LIG1      -0.3600000000000003
     15 C           0.5863    2.3899   -3.8466 C.3     1  LIG1      -0.2999999999999998
     16 C           1.0957    1.5060    0.5039 C.3     1  LIG1      -0.29000000000000004
     17 C           1.2663    0.2763   -5.7966 C.3     1  LIG1      -0.28000000000000025
     18 C          -3.4487   -1.5271    4.8473 C.3     1  LIG1      -0.1299999999999999
     19 C          -2.2371   -1.7579    5.7556 C.2     1  LIG1      0.20999999999999996
     20 C          -0.3535    0.0773    3.4719 C.3     1  LIG1      -0.08999999999999986
     21 C           1.0240   -0.0269   -4.3116 C.3     1  LIG1      -0.1200000000000001
     22 C           0.4937    1.5240   -6.2558 C.3     1  LIG1       0.1299999999999999
     23 C           0.9774   -0.4871   -1.5115 C.2     1  LIG1      0.08999999999999986
     24 C           0.6156   -0.2398    2.3074 C.3     1  LIG1      -0.09999999999999964
     25 C           0.5581   -0.8779   -0.1067 C.3     1  LIG1      -0.17999999999999972
     26 C           1.0882    0.7910   -1.9252 C.2     1  LIG1      0.07000000000000028
     27 C           1.4142    1.1585   -3.3806 C.3     1  LIG1      0.04999999999999982
     28 C           0.2143    0.2965    0.8672 C.3     1  LIG1      0.1200000000000001
     29 O          -0.9117    1.2624   -6.3503 O.3     1  LIG1      -0.6899999999999995
     30 H          -3.1133    0.5292    4.1464 H       1  LIG1       0.16000000000000003
     31 H          -3.9807    0.4231    5.6854 H       1  LIG1       0.15000000000000002
     32 H          -4.8065    0.0284    4.1685 H       1  LIG1       0.15000000000000002
     33 H          -2.4236   -1.7894    2.9173 H       1  LIG1       0.18000000000000005
     34 H          -3.0991   -3.2757    3.5876 H       1  LIG1       0.15000000000000002
     35 H          -4.1712   -2.0607    2.8558 H       1  LIG1          0.14
     36 H          -1.3374   -3.1091    7.1284 H       1  LIG1          0.14
     37 H          -2.9646   -3.6353    6.4293 H       1  LIG1          0.14
     38 H           0.6988    1.8520    4.1710 H       1  LIG1          0.14
     39 H          -0.5484    2.2077    2.9699 H       1  LIG1       0.16000000000000003
     40 H          -1.0111    1.8274    4.6267 H       1  LIG1       0.15000000000000002
     41 H           3.1549    2.3583   -2.8188 H       1  LIG1       0.15000000000000002
     42 H           3.5350    0.6603   -3.0986 H       1  LIG1       0.15000000000000002
     43 H           3.2554    1.7454   -4.4675 H       1  LIG1       0.16000000000000003
     44 H          -1.5776    1.5307    1.2535 H       1  LIG1       0.15000000000000002
     45 H          -1.4974    0.8179   -0.3629 H       1  LIG1       0.15000000000000002
     46 H          -1.9156   -0.1915    1.0166 H       1  LIG1       0.15000000000000002
     47 H          -1.5180    0.2691    5.9652 H       1  LIG1       0.15000000000000002
     48 H          -0.5811   -0.9448    6.8004 H       1  LIG1          0.14
     49 H           0.9110   -0.4495    5.1318 H       1  LIG1          0.13
     50 H           0.0771   -1.8290    4.4420 H       1  LIG1          0.14
     51 H           1.4301   -2.1436   -4.5357 H       1  LIG1          0.13
     52 H           2.7577   -1.2291   -3.8429 H       1  LIG1          0.14
     53 H           0.1933   -2.2013   -2.5123 H       1  LIG1          0.14
     54 H           1.8400   -2.4031   -1.9655 H       1  LIG1       0.15000000000000002
     55 H           0.0153   -2.3359    2.1206 H       1  LIG1          0.14
     56 H           1.6121   -2.1375    2.8508 H       1  LIG1          0.14
     57 H           2.5401   -1.3426    0.6776 H       1  LIG1          0.13
     58 H           1.6061   -2.7918    0.2773 H       1  LIG1          0.14
     59 H           0.1272    3.5503   -5.6257 H       1  LIG1          0.14
     60 H           1.8137    3.0582   -5.5073 H       1  LIG1       0.15000000000000002
     61 H           1.6892    2.7129   -1.1703 H       1  LIG1       0.15000000000000002
     62 H          -0.0316    2.4401   -1.1001 H       1  LIG1       0.15000000000000002
     63 H          -0.4786    2.1902   -3.6523 H       1  LIG1          0.14
     64 H           0.8372    3.2743   -3.2509 H       1  LIG1          0.14
     65 H           0.8841    2.3450    1.1787 H       1  LIG1          0.13
     66 H           2.1465    1.2300    0.6663 H       1  LIG1          0.13
     67 H           0.9411   -0.5762   -6.4051 H       1  LIG1          0.13
     68 H           2.3386    0.4141   -5.9872 H       1  LIG1          0.14
     69 H          -4.2916   -2.0394    5.3311 H       1  LIG1          0.14
     70 H          -1.3676   -0.1608    3.1414 H       1  LIG1          0.14
     71 H          -0.0641   -0.1623   -4.1828 H       1  LIG1          0.12
     72 H           0.7834    1.7768   -7.2820 H       1  LIG1          0.13
     73 H           1.5720    0.2399    2.5653 H       1  LIG1          0.12
     74 H          -0.3608   -1.4782   -0.2245 H       1  LIG1          0.13
     75 H          -1.2378    1.0604   -5.4599 H       1  LIG1       0.42000000000000004
@<TRIPOS>BOND
     1    72    22    1
     2    67    17    1
     3    29    22    1
     4    29    75    1
     5    22    17    1
     6    22    13    1
     7    68    17    1
     8    17    21    1
     9    59    13    1
    10    60    13    1
    11    13    15    1
    12    51     9    1
    13    43     5    1
    14    21    71    1
    15    21     9    1
    16    21    27    1
    17    15    63    1
    18    15    27    1
    19    15    64    1
    20    52     9    1
    21     9    10    1
    22     5    27    1
    23     5    42    1
    24     5    41    1
    25    27    26    1
    26    53    10    1
    27    10    54    1
    28    10    23    1
    29    26    23    2
    30    26    14    1
    31    23    25    1
    32    61    14    1
    33    62    14    1
    34    14    16    1
    35    45     6    1
    36    74    25    1
    37    25    12    1
    38    25    28    1
    39    58    12    1
    40    16    66    1
    41    16    28    1
    42    16    65    1
    43    57    12    1
    44    12    11    1
    45     6    28    1
    46     6    46    1
    47     6    44    1
    48    28    24    1
    49    11    55    1
    50    11    24    1
    51    11    56    1
    52    24    73    1
    53    24    20    1
    54    35     2    1
    55    33     2    1
    56    39     4    1
    57    70    20    1
    58     2    34    1
    59     2    18    1
    60    20     4    1
    61    20     8    1
    62     4    38    1
    63     4    40    1
    64    30     1    1
    65    32     1    1
    66    50     8    1
    67     1    18    1
    68     1    31    1
    69     8    49    1
    70     8     7    1
    71    18    69    1
    72    18    19    1
    73    19     7    1
    74    19     3    2
    75     7    47    1
    76     7    48    1
    77    37     3    1
    78     3    36    1
