@<TRIPOS>MOLECULE
SLWWJZMPHJJOPH-PHDIDXHHSA-M	6045245	-647.1023163509758
 19 19 0 0 0
SMALL
MULLIKEN NwChem

@<TRIPOS>ATOM
      1 C           0.0434   -1.1628    0.1860 C.2     1  LIG1            -0.25
      2 C          -0.5574    1.2336   -0.2397 C.3     1  LIG1       -0.3799999999999999
      3 C          -0.9099   -0.2200   -0.0292 C.2     1  LIG1       0.07000000000000028
      4 C           1.4780   -0.8672    0.2127 C.2     1  LIG1       0.41999999999999993
      5 C           0.8509    1.5804    0.2529 C.3     1  LIG1       0.08999999999999986
      6 C           1.8642    0.5475   -0.2637 C.3     1  LIG1       0.05999999999999961
      7 C          -2.4173   -0.6047   -0.1197 C.2     1  LIG1           0.5
      8 O           2.3401   -1.6820    0.5324 O.2     1  LIG1      -0.5399999999999991
      9 O           0.9128    1.6394    1.6843 O.3     1  LIG1      -0.6699999999999999
     10 O           1.9387    0.5660   -1.6992 O.3     1  LIG1      -0.6600000000000001
     11 O          -3.1370    0.3191   -0.5764 O.co2   1  LIG1      -0.6600000000000001
     12 O          -2.7043   -1.7663    0.2466 O.co2   1  LIG1      -0.6500000000000004
     13 H          -0.2776   -2.1851    0.3684 H       1  LIG1       0.15000000000000002
     14 H          -1.3108    1.8538    0.2553 H       1  LIG1       0.17000000000000004
     15 H          -0.6624    1.4712   -1.3068 H       1  LIG1       0.18000000000000005
     16 H           1.1473    2.5768   -0.0947 H       1  LIG1       0.16000000000000003
     17 H           2.8683    0.7762    0.1018 H       1  LIG1       0.16000000000000003
     18 H           0.4509    0.8484    2.0097 H       1  LIG1       0.42000000000000004
     19 H           1.1340    0.1280   -2.0229 H       1  LIG1       0.43000000000000005
@<TRIPOS>BOND
     1    19    10    1
     2    10     6    1
     3    15     2    1
     4    11     7   ar
     5     6    17    1
     6     6     4    1
     7     6     5    1
     8     2     3    1
     9     2     5    1
    10     2    14    1
    11     7     3    1
    12     7    12   ar
    13    16     5    1
    14     3     1    2
    15     1     4    1
    16     1    13    1
    17     4     8    2
    18     5     9    1
    19     9    18    1
