@<TRIPOS>MOLECULE
SMQUZDBALVYZAC-UHFFFAOYSA-N	6045247	-420.71661461203024
 15 15 0 0 0
SMALL
MULLIKEN NwChem

@<TRIPOS>ATOM
      1 C          -2.1591   -0.6594    0.0881 C.ar    1  LIG1      -0.16000000000000014
      2 C          -1.4123   -1.8410    0.0968 C.ar    1  LIG1      -0.13999999999999968
      3 C          -1.4875    0.5564    0.0326 C.ar    1  LIG1      -0.21999999999999975
      4 C          -0.0207   -1.7997    0.0517 C.ar    1  LIG1      -0.20999999999999996
      5 C           0.5292    1.9757   -0.0740 C.2     1  LIG1       0.17999999999999972
      6 C          -0.0859    0.6318   -0.0143 C.ar    1  LIG1       0.07000000000000028
      7 C           0.6561   -0.5735   -0.0037 C.ar    1  LIG1       0.2999999999999998
      8 O           1.7144    2.2375   -0.1153 O.2     1  LIG1      -0.47000000000000064
      9 O           2.0084   -0.5080   -0.0485 O.3     1  LIG1      -0.6400000000000006
     10 H          -3.2434   -0.6906    0.1235 H       1  LIG1       0.16000000000000003
     11 H          -1.9134   -2.8043    0.1390 H       1  LIG1       0.18000000000000005
     12 H          -2.0517    1.4872    0.0246 H       1  LIG1       0.18000000000000005
     13 H           0.5539   -2.7243    0.0589 H       1  LIG1       0.18000000000000005
     14 H          -0.2293    2.7946   -0.0796 H       1  LIG1          0.13
     15 H           2.3674   -1.4097   -0.0360 H       1  LIG1       0.45999999999999996
@<TRIPOS>BOND
     1     8     5    2
     2    14     5    1
     3     5     6    1
     4     9    15    1
     5     9     7    1
     6     6     7   ar
     7     6     3   ar
     8     7     4   ar
     9    12     3    1
    10     3     1   ar
    11     4    13    1
    12     4     2   ar
    13     1     2   ar
    14     1    10    1
    15     2    11    1
