@<TRIPOS>MOLECULE
SNZSFAQYVLPEBZ-NNYOXOHSSA-J	11083998	-3502.372365095228
 74 78 0 0 0
SMALL
MULLIKEN NwChem

@<TRIPOS>ATOM
      1 C           9.2223    2.2017    1.9337 C.2     1  LIG1            -0.25
      2 C          10.5755    2.1276    1.5153 C.2     1  LIG1      -0.15000000000000036
      3 C           8.2675    1.5404    1.1836 C.2     1  LIG1      0.08999999999999986
      4 C           9.9753    0.1803    0.1001 C.3     1  LIG1       -0.17999999999999972
      5 C           3.9992    0.6208   -0.7939 C.3     1  LIG1       -0.08000000000000007
      6 C          -2.7036   -0.0451   -0.1405 C.3     1  LIG1       -0.04999999999999982
      7 C          -6.0173    3.6873   -0.6147 C.ar    1  LIG1       0.13999999999999968
      8 C          -8.1706    0.6961    1.7072 C.ar    1  LIG1       0.20999999999999996
      9 C          10.9714    1.2413    0.5303 C.2     1  LIG1       0.019999999999999574
     10 C           5.3400   -0.0614   -1.0737 C.3     1  LIG1       0.1299999999999999
     11 C          -3.8851   -0.9263    0.2789 C.3     1  LIG1       0.1200000000000001
     12 C          -7.9348    2.6493    0.9060 C.ar    1  LIG1       0.20000000000000018
     13 C           5.5833   -1.3946   -0.3231 C.3     1  LIG1       0.07000000000000028
     14 C          -4.8028   -1.4840   -0.8410 C.3     1  LIG1       0.08999999999999986
     15 C           7.0936   -1.3250    0.0796 C.3     1  LIG1       0.09999999999999964
     16 C          -6.2673   -1.2975   -0.2968 C.3     1  LIG1       0.09999999999999964
     17 C          -8.0476    3.9527    0.4178 C.ar    1  LIG1       0.41000000000000014
     18 C          12.2849    1.2105   -0.0702 C.2     1  LIG1       0.4800000000000004
     19 C          -6.7668    1.9414    0.5419 C.ar    1  LIG1       0.5300000000000002
     20 C           7.5743   -0.0022   -0.5787 C.3     1  LIG1       0.28000000000000025
     21 C          -6.0636   -0.4942    1.0129 C.3     1  LIG1       0.2599999999999998
     22 N          -9.1660    4.7410    0.7226 N.pl3   1  LIG1      -0.7800000000000002
     23 N          13.1734    2.2791    0.2562 N.am    1  LIG1      -0.7800000000000002
     24 N          -7.0831    4.4794   -0.3516 N.ar    1  LIG1        -0.54
     25 N          -5.7811    2.4375   -0.2239 N.ar    1  LIG1      -0.5300000000000002
     26 N          -8.8000    1.8585    1.6360 N.ar    1  LIG1      -0.5899999999999999
     27 N           8.6053    0.7198    0.1646 N.pl3   1  LIG1      -0.4299999999999997
     28 N          -6.9268    0.6983    1.1042 N.ar    1  LIG1      -0.5199999999999996
     29 O           5.3953   -2.5238   -1.1344 O.3     1  LIG1        -0.75
     30 O          -4.5607   -2.8402   -1.1494 O.3     1  LIG1      -0.6999999999999993
     31 O           7.8005   -2.4563   -0.3738 O.3     1  LIG1      -0.6999999999999993
     32 O          12.6927    0.3136   -0.8266 O.2     1  LIG1      -0.5999999999999996
     33 O          -9.1794   -1.4826   -0.3203 O.2     1  LIG1      -0.7899999999999991
     34 O          -8.9144   -4.0366    0.1862 O.3     1  LIG1        -0.75
     35 O          -8.4022   -2.2504    2.0054 O.3     1  LIG1      -0.7799999999999994
     36 O           2.8788   -2.6844   -1.1032 O.2     1  LIG1      -0.7300000000000004
     37 O           2.5405   -1.1476    0.9681 O.3     1  LIG1      -0.6999999999999993
     38 O          -0.3909    0.2847   -2.6497 O.2     1  LIG1      -0.6600000000000001
     39 O           0.0251    1.0682   -0.1678 O.3     1  LIG1      -0.6999999999999993
     40 O           2.9660   -0.1349   -1.3771 O.3     1  LIG1      -0.5999999999999996
     41 O          -1.6595   -0.8419   -0.6826 O.3     1  LIG1      -0.5800000000000001
     42 O           6.4373    0.8152   -0.6917 O.3     1  LIG1      -0.5500000000000007
     43 O          -4.7227   -0.0756    1.0991 O.3     1  LIG1      -0.5500000000000007
     44 O          -6.8288   -2.5545   -0.0512 O.3     1  LIG1      -0.6699999999999999
     45 O           0.7583   -1.3287   -0.9827 O.3     1  LIG1      -0.6300000000000008
     46 P          -8.5295   -2.5997    0.5037 P.3     1  LIG1           1.0
     47 P           2.2823   -1.4037   -0.4921 P.3     1  LIG1       1.1799999999999997
     48 P          -0.2922    0.0046   -1.1786 P.3     1  LIG1       1.0899999999999999
     49 H           8.9080    2.8809    2.7186 H       1  LIG1       0.15000000000000002
     50 H          11.3029    2.8059    1.9600 H       1  LIG1       0.17000000000000004
     51 H           7.2026    1.6999    1.3090 H       1  LIG1       0.18999999999999995
     52 H          10.0374   -0.7253    0.7312 H       1  LIG1       0.16000000000000003
     53 H          10.1758   -0.1469   -0.9241 H       1  LIG1       0.18000000000000005
     54 H           3.9992    1.6160   -1.2598 H       1  LIG1       0.16000000000000003
     55 H           3.8509    0.7360    0.2870 H       1  LIG1       0.16000000000000003
     56 H          -3.0699    0.6980   -0.8662 H       1  LIG1       0.15000000000000002
     57 H          -2.3482    0.5070    0.7389 H       1  LIG1       0.16000000000000003
     58 H          -5.2507    4.1370   -1.2450 H       1  LIG1       0.16000000000000003
     59 H          -8.5383   -0.2478    2.1190 H       1  LIG1       0.21999999999999997
     60 H           5.4158   -0.2740   -2.1506 H       1  LIG1       0.15000000000000002
     61 H          -3.5215   -1.7787    0.8717 H       1  LIG1       0.15000000000000002
     62 H           4.9402   -1.4349    0.5643 H       1  LIG1       0.16000000000000003
     63 H          -4.6602   -0.8786   -1.7465 H       1  LIG1       0.15000000000000002
     64 H           7.2094   -1.2218    1.1695 H       1  LIG1       0.15000000000000002
     65 H          -6.8951   -0.7227   -0.9895 H       1  LIG1       0.15000000000000002
     66 H           8.0042   -0.2516   -1.5648 H       1  LIG1       0.16000000000000003
     67 H          -6.3628   -1.1377    1.8474 H       1  LIG1       0.18000000000000005
     68 H          -9.3633    5.4006   -0.0227 H       1  LIG1          0.36
     69 H          -9.9665    4.1575    0.9478 H       1  LIG1          0.36
     70 H          13.9363    2.2808   -0.4135 H       1  LIG1       0.33999999999999997
     71 H          12.7178    3.1857    0.2940 H       1  LIG1          0.36
     72 H           4.3466   -2.6859   -1.1489 H       1  LIG1       0.45999999999999996
     73 H          -5.3640   -3.2815   -0.7863 H       1  LIG1       0.43000000000000005
     74 H           7.0814   -2.9538   -0.8419 H       1  LIG1       0.43000000000000005
@<TRIPOS>BOND
     1    38    48    2
     2    60    10    1
     3    63    14    1
     4    66    20    1
     5    40     5    1
     6    40    47    1
     7    54     5    1
     8    58     7    1
     9    48    45    1
    10    48    41    1
    11    48    39    1
    12    30    14    1
    13    30    73    1
    14    72    29    1
    15    29    13    1
    16    36    47    2
    17    10     5    1
    18    10    42    1
    19    10    13    1
    20    65    16    1
    21    45    47    1
    22    53     4    1
    23    56     6    1
    24    74    31    1
    25    14    16    1
    26    14    11    1
    27    32    18    2
    28     5    55    1
    29    42    20    1
    30    41     6    1
    31     7    24   ar
    32     7    25   ar
    33    20    15    1
    34    20    27    1
    35    47    37    1
    36    70    23    1
    37    31    15    1
    38    24    17   ar
    39    13    15    1
    40    13    62    1
    41    33    46    2
    42    16    44    1
    43    16    21    1
    44    25    19   ar
    45     6    11    1
    46     6    57    1
    47    18    23   am
    48    18     9    1
    49    44    46    1
    50    68    22    1
    51    15    64    1
    52     4    27    1
    53     4     9    1
    54     4    52    1
    55    27     3    1
    56    34    46    1
    57    23    71    1
    58    11    61    1
    59    11    43    1
    60    17    22    1
    61    17    12   ar
    62    46    35    1
    63     9     2    2
    64    19    12   ar
    65    19    28   ar
    66    22    69    1
    67    12    26   ar
    68    21    43    1
    69    21    28    1
    70    21    67    1
    71    28     8   ar
    72     3    51    1
    73     3     1    2
    74     2     1    1
    75     2    50    1
    76    26     8   ar
    77     8    59    1
    78     1    49    1
