@<TRIPOS>MOLECULE
SOXXPQLIZIPMIZ-UPHRSURJSA-L	6045250	-607.3770026994455
 15 14 0 0 0
SMALL
MULLIKEN NwChem

@<TRIPOS>ATOM
      1 C           0.4418    0.7616    0.0075 C.2     1  LIG1      -0.20000000000000018
      2 C          -0.0282    1.8792   -0.5884 C.2     1  LIG1       -0.1900000000000004
      3 C           1.0727   -1.7050    0.0534 C.3     1  LIG1       -0.4299999999999997
      4 C           0.0366   -0.6346   -0.2800 C.2     1  LIG1       0.41000000000000014
      5 C          -1.0665    2.1317   -1.6932 C.2     1  LIG1       0.4800000000000004
      6 C           1.4272   -1.9096    1.6012 C.2     1  LIG1       0.5099999999999998
      7 O          -1.0549   -0.9454   -0.7589 O.2     1  LIG1      -0.5600000000000005
      8 O          -0.7661    1.7752   -2.8569 O.co2   1  LIG1      -0.6600000000000001
      9 O          -2.0623    2.7875   -1.2836 O.co2   1  LIG1      -0.6600000000000001
     10 O           1.1267   -3.0335    2.0702 O.co2   1  LIG1      -0.6600000000000001
     11 O           2.0037   -0.9405    2.1579 O.co2   1  LIG1      -0.6400000000000006
     12 H           1.2268    0.8278    0.7609 H       1  LIG1          0.14
     13 H           0.4011    2.8204   -0.2234 H       1  LIG1       0.16000000000000003
     14 H           0.7186   -2.6524   -0.3631 H       1  LIG1          0.13
     15 H           2.0200   -1.4212   -0.4296 H       1  LIG1       0.16000000000000003
@<TRIPOS>BOND
     1     8     5   ar
     2     5     9   ar
     3     5     2    1
     4     7     4    2
     5     2    13    1
     6     2     1    2
     7    15     3    1
     8    14     3    1
     9     4     1    1
    10     4     3    1
    11     1    12    1
    12     3     6    1
    13     6    10   ar
    14     6    11   ar
