@<TRIPOS>MOLECULE
SPVXKVOXSXTJOY-UHFFFAOYSA-N	6045251	-2402.423782121955
 3 2 0 0 0
SMALL
MULLIKEN NwChem

@<TRIPOS>ATOM
      1 SE         -0.2437    0.2648    0.2198 Se      1  LIG1       -0.3100000000000023
      2 H          -0.5065   -0.8566   -0.7108 H       1  LIG1       0.16000000000000003
      3 H           1.2183    0.0823    0.0683 H       1  LIG1       0.16000000000000003
@<TRIPOS>BOND
     1     2     1    1
     2     3     1    1
