@<TRIPOS>MOLECULE
SQFQJKZSFOZDJY-CVGLIYDESA-N	6045252	-1166.9140642976556
 71 74 0 0 0
SMALL
MULLIKEN NwChem

@<TRIPOS>ATOM
      1 C           2.8001   -2.4646    4.1118 C.3     1  LIG1      -0.46999999999999975
      2 C           1.0345   -3.6566    5.5170 C.3     1  LIG1      -0.45999999999999996
      3 C           1.0167   -4.8787    2.1928 C.2     1  LIG1      -0.45999999999999996
      4 C          -2.5326   -0.4748    3.6243 C.3     1  LIG1      -0.46999999999999975
      5 C           0.3451   -1.1197   -2.5032 C.3     1  LIG1      -0.4800000000000004
      6 C          -2.4037    2.6801    2.4061 C.3     1  LIG1      -0.4800000000000004
      7 C          -0.0336   -2.7374    2.5733 C.2     1  LIG1      -0.20999999999999996
      8 C          -0.3479   -1.5863    3.1875 C.2     1  LIG1      -0.11000000000000032
      9 C           2.1815    1.5405   -2.9001 C.2     1  LIG1      -0.23000000000000043
     10 C           2.0917    1.7267   -1.4595 C.2     1  LIG1      -0.2400000000000002
     11 C           0.7123    0.5904    1.6153 C.3     1  LIG1      -0.3099999999999996
     12 C          -0.2559    2.7773    1.1112 C.3     1  LIG1      -0.29000000000000004
     13 C          -1.1534    1.5927   -4.7709 C.3     1  LIG1      -0.2999999999999998
     14 C          -1.3976    0.4438   -0.6886 C.3     1  LIG1      -0.2999999999999998
     15 C          -1.2232    0.3809   -3.8356 C.3     1  LIG1      -0.3099999999999996
     16 C          -2.1686    1.2978    0.3350 C.3     1  LIG1      -0.28000000000000025
     17 C           1.2183    0.7477   -5.0783 C.3     1  LIG1      -0.3700000000000001
     18 C           1.8248   -3.6554    4.1933 C.3     1  LIG1      -0.15000000000000036
     19 C           0.9282   -3.7787    2.9642 C.2     1  LIG1      0.23000000000000043
     20 C          -1.3469   -0.5926    2.6485 C.3     1  LIG1      -0.13999999999999968
     21 C           1.1995    0.9366   -3.5875 C.2     1  LIG1      0.15000000000000036
     22 C           0.0299    1.4696   -5.7513 C.3     1  LIG1       0.15000000000000036
     23 C           0.9454    1.5389   -0.7763 C.2     1  LIG1      0.16999999999999993
     24 C          -0.6400    0.7625    2.3676 C.3     1  LIG1      -0.08999999999999986
     25 C           0.9064    1.8432    0.7049 C.3     1  LIG1      -0.17999999999999972
     26 C          -0.3262    1.1606   -1.5457 C.3     1  LIG1      -0.16000000000000014
     27 C          -0.0096    0.3461   -2.8524 C.3     1  LIG1      0.04999999999999982
     28 C          -1.4134    1.8614    1.5600 C.3     1  LIG1      0.09999999999999964
     29 O          -0.3045    0.6853   -6.9017 O.3     1  LIG1      -0.6899999999999995
     30 H           2.2829   -1.5019    4.1401 H       1  LIG1       0.16000000000000003
     31 H           3.3839   -2.5003    3.1864 H       1  LIG1       0.15000000000000002
     32 H           3.4981   -2.4937    4.9570 H       1  LIG1       0.15000000000000002
     33 H           0.4446   -2.7453    5.6510 H       1  LIG1       0.15000000000000002
     34 H           0.3465   -4.5078    5.5581 H       1  LIG1       0.15000000000000002
     35 H           1.7261   -3.7346    6.3633 H       1  LIG1       0.15000000000000002
     36 H           0.3972   -5.0068    1.3082 H       1  LIG1       0.15000000000000002
     37 H           1.7101   -5.6846    2.4178 H       1  LIG1       0.15000000000000002
     38 H          -2.2172   -0.0215    4.5727 H       1  LIG1       0.15000000000000002
     39 H          -3.3396    0.1378    3.2129 H       1  LIG1       0.16000000000000003
     40 H          -2.9421   -1.4663    3.8464 H       1  LIG1          0.14
     41 H          -0.5243   -1.6661   -2.1222 H       1  LIG1       0.15000000000000002
     42 H           0.7046   -1.6495   -3.3923 H       1  LIG1       0.15000000000000002
     43 H           1.1347   -1.1517   -1.7453 H       1  LIG1       0.15000000000000002
     44 H          -3.2951    2.1111    2.6850 H       1  LIG1       0.15000000000000002
     45 H          -1.9302    3.0387    3.3285 H       1  LIG1          0.14
     46 H          -2.7436    3.5594    1.8437 H       1  LIG1          0.14
     47 H          -0.5565   -2.9506    1.6385 H       1  LIG1          0.13
     48 H           0.1335   -1.3032    4.1205 H       1  LIG1       0.15000000000000002
     49 H           3.0687    1.9028   -3.4166 H       1  LIG1          0.13
     50 H           2.9798    2.0718   -0.9325 H       1  LIG1          0.13
     51 H           1.5398    0.4940    2.3258 H       1  LIG1          0.14
     52 H           0.7318   -0.3288    1.0245 H       1  LIG1       0.15000000000000002
     53 H          -0.5565    3.4647    0.3116 H       1  LIG1          0.14
     54 H           0.0620    3.3939    1.9621 H       1  LIG1          0.14
     55 H          -1.0338    2.5100   -4.1802 H       1  LIG1          0.14
     56 H          -2.0850    1.7049   -5.3417 H       1  LIG1          0.14
     57 H          -0.9513   -0.4220   -0.1951 H       1  LIG1       0.16000000000000003
     58 H          -2.1529    0.0296   -1.3642 H       1  LIG1       0.15000000000000002
     59 H          -1.2263   -0.5294   -4.4488 H       1  LIG1          0.14
     60 H          -2.1693    0.3789   -3.2850 H       1  LIG1       0.15000000000000002
     61 H          -3.0089    0.6926    0.7023 H       1  LIG1          0.14
     62 H          -2.6268    2.1457   -0.1967 H       1  LIG1          0.13
     63 H           2.1672    1.0717   -5.5163 H       1  LIG1       0.15000000000000002
     64 H           1.1024   -0.3180   -5.3221 H       1  LIG1       0.16000000000000003
     65 H           2.4439   -4.5630    4.2046 H       1  LIG1          0.14
     66 H          -1.7284   -0.9939    1.7017 H       1  LIG1          0.14
     67 H           0.3437    2.4778   -6.0642 H       1  LIG1          0.13
     68 H          -0.4156    1.2064    3.3494 H       1  LIG1          0.12
     69 H           1.8602    2.3223    0.9491 H       1  LIG1          0.13
     70 H          -0.7705    2.1182   -1.8740 H       1  LIG1          0.14
     71 H          -1.0050    1.1528   -7.3843 H       1  LIG1       0.42000000000000004
@<TRIPOS>BOND
     1    71    29    1
     2    29    22    1
     3    67    22    1
     4    22    17    1
     5    22    13    1
     6    63    17    1
     7    56    13    1
     8    64    17    1
     9    17    21    1
    10    13    55    1
    11    13    15    1
    12    59    15    1
    13    15    60    1
    14    15    27    1
    15    21     9    2
    16    21    27    1
    17    49     9    1
    18    42     5    1
    19     9    10    1
    20    27     5    1
    21    27    26    1
    22     5    41    1
    23     5    43    1
    24    70    26    1
    25    26    23    1
    26    26    14    1
    27    10    50    1
    28    10    23    2
    29    58    14    1
    30    23    25    1
    31    14    57    1
    32    14    16    1
    33    62    16    1
    34    53    12    1
    35    16    61    1
    36    16    28    1
    37    25    69    1
    38    25    12    1
    39    25    11    1
    40    52    11    1
    41    12    28    1
    42    12    54    1
    43    36     3    1
    44    28    24    1
    45    28     6    1
    46    11    51    1
    47    11    24    1
    48    47     7    1
    49    66    20    1
    50    46     6    1
    51     3    37    1
    52     3    19    2
    53    24    20    1
    54    24    68    1
    55     6    44    1
    56     6    45    1
    57     7    19    1
    58     7     8    2
    59    20     8    1
    60    20     4    1
    61    19    18    1
    62    31     1    1
    63     8    48    1
    64    39     4    1
    65     4    40    1
    66     4    38    1
    67     1    30    1
    68     1    18    1
    69     1    32    1
    70    18    65    1
    71    18     2    1
    72     2    34    1
    73     2    33    1
    74     2    35    1
