@<TRIPOS>MOLECULE
SQXVIIOPMYSNCP-UHFFFAOYSA-L	6045253	-1086.5170308555244
 26 25 0 0 0
SMALL
MULLIKEN NwChem

@<TRIPOS>ATOM
      1 C          -0.7297   -2.9712   -1.3425 C.3     1  LIG1      -0.6299999999999999
      2 C          -1.6776    0.6002   -1.0405 C.3     1  LIG1      -0.2599999999999998
      3 C          -1.1310    0.1083    0.3045 C.3     1  LIG1      -0.2599999999999998
      4 C          -1.3286   -0.2812   -2.2452 C.3     1  LIG1      -0.41999999999999993
      5 C           0.3977   -0.0909    0.3820 C.3     1  LIG1       -0.16999999999999993
      6 C           1.2191    1.2019    0.1536 C.3     1  LIG1       0.05999999999999961
      7 C           0.6774   -0.9236    1.6845 C.2     1  LIG1       0.4900000000000002
      8 C           0.8502    2.4770    0.9924 C.2     1  LIG1       0.5199999999999996
      9 O           2.6151    0.9411    0.2887 O.3     1  LIG1      -0.7200000000000006
     10 O           0.3389   -2.1506    1.5726 O.co2   1  LIG1      -0.6699999999999999
     11 O           1.1287   -0.3456    2.6939 O.co2   1  LIG1      -0.6699999999999999
     12 O           1.7973    2.9375    1.6932 O.co2   1  LIG1      -0.6799999999999997
     13 O          -0.3008    2.9609    0.8231 O.co2   1  LIG1      -0.6600000000000001
     14 S          -2.0244   -2.0025   -2.2252 S.3     1  LIG1      -0.030000000000001137
     15 H           0.1979   -2.9647   -1.9266 H       1  LIG1       0.18000000000000005
     16 H          -1.1086   -4.0003   -1.3045 H       1  LIG1       0.18000000000000005
     17 H          -0.5129   -2.6209   -0.3178 H       1  LIG1       0.22999999999999998
     18 H          -1.2869    1.6118   -1.2135 H       1  LIG1          0.14
     19 H          -2.7748    0.6873   -0.9847 H       1  LIG1          0.13
     20 H          -1.4100    0.8464    1.0617 H       1  LIG1          0.12
     21 H          -1.6057   -0.8460    0.5626 H       1  LIG1          0.12
     22 H          -0.2436   -0.3729   -2.3621 H       1  LIG1       0.18999999999999995
     23 H          -1.7212    0.1570   -3.1730 H       1  LIG1       0.18000000000000005
     24 H           0.7034   -0.7650   -0.4324 H       1  LIG1       0.10999999999999999
     25 H           1.0357    1.5065   -0.8970 H       1  LIG1       0.10999999999999999
     26 H           2.7938    1.5165    1.0734 H       1  LIG1           0.38
@<TRIPOS>BOND
     1    23     4    1
     2    22     4    1
     3     4    14    1
     4     4     2    1
     5    14     1    1
     6    15     1    1
     7     1    16    1
     8     1    17    1
     9    18     2    1
    10     2    19    1
    11     2     3    1
    12    25     6    1
    13    24     5    1
    14     6     9    1
    15     6     5    1
    16     6     8    1
    17     9    26    1
    18     3     5    1
    19     3    21    1
    20     3    20    1
    21     5     7    1
    22    13     8   ar
    23     8    12   ar
    24    10     7   ar
    25     7    11   ar
