@<TRIPOS>MOLECULE
SRBFZHDQGSBBOR-KKQCNMDGSA-N	6045254	-572.5185433835219
 20 20 0 0 0
SMALL
MULLIKEN NwChem

@<TRIPOS>ATOM
      1 C           0.3603    1.6347   -0.1040 C.3     1  LIG1       -0.07000000000000028
      2 C           1.3720    0.5220    0.1652 C.3     1  LIG1       0.11000000000000032
      3 C           0.8224   -0.8366   -0.3133 C.3     1  LIG1       0.05999999999999961
      4 C          -0.6109   -1.0627    0.2195 C.3     1  LIG1       0.08000000000000007
      5 C          -1.5024    0.1470   -0.1371 C.3     1  LIG1       0.2999999999999998
      6 O           1.5946    0.5020    1.5782 O.3     1  LIG1      -0.6699999999999999
      7 O           0.8521   -0.7990   -1.7520 O.3     1  LIG1      -0.6699999999999999
      8 O          -0.5924   -1.2936    1.6146 O.3     1  LIG1      -0.6699999999999999
      9 O          -1.7495    0.2475   -1.5129 O.3     1  LIG1      -0.6699999999999999
     10 O          -0.9251    1.3253    0.4246 O.3     1  LIG1      -0.5099999999999998
     11 H           0.6850    2.5490    0.3982 H       1  LIG1       0.17000000000000004
     12 H           0.3048    1.8268   -1.1838 H       1  LIG1       0.16000000000000003
     13 H           2.3024    0.7401   -0.3804 H       1  LIG1       0.16000000000000003
     14 H           1.4713   -1.6428    0.0623 H       1  LIG1       0.17000000000000004
     15 H          -1.0368   -1.9603   -0.2454 H       1  LIG1       0.17000000000000004
     16 H          -2.4671    0.0518    0.3651 H       1  LIG1       0.16000000000000003
     17 H           2.1920   -0.2353    1.7829 H       1  LIG1       0.43999999999999995
     18 H           0.6616   -1.6935   -2.0773 H       1  LIG1       0.44999999999999996
     19 H          -0.2309   -0.4798    2.0131 H       1  LIG1       0.42000000000000004
     20 H          -0.9153    0.0413   -1.9742 H       1  LIG1       0.43000000000000005
@<TRIPOS>BOND
     1    18     7    1
     2    20     9    1
     3     7     3    1
     4     9     5    1
     5    12     1    1
     6    13     2    1
     7     3    14    1
     8     3     2    1
     9     3     4    1
    10    15     4    1
    11     5     4    1
    12     5    16    1
    13     5    10    1
    14     1     2    1
    15     1    11    1
    16     1    10    1
    17     2     6    1
    18     4     8    1
    19     6    17    1
    20     8    19    1
