@<TRIPOS>MOLECULE
SRBFZHDQGSBBOR-LECHCGJUSA-N	6045255	-572.5140469918172
 20 20 0 0 0
SMALL
MULLIKEN NwChem

@<TRIPOS>ATOM
      1 C           0.8186    1.5345   -0.1956 C.3     1  LIG1       -0.08999999999999986
      2 C           1.5841    0.2511    0.1554 C.3     1  LIG1       0.09999999999999964
      3 C           0.8741   -0.9760   -0.4614 C.3     1  LIG1       0.08000000000000007
      4 C          -0.6214   -0.9709   -0.0882 C.3     1  LIG1       0.09999999999999964
      5 C          -1.2454    0.3921   -0.4129 C.3     1  LIG1       0.33000000000000007
      6 O           1.7250    0.1120    1.5558 O.3     1  LIG1      -0.6799999999999997
      7 O           1.0436   -1.0601   -1.8734 O.3     1  LIG1      -0.6699999999999999
      8 O          -0.7259   -1.2137    1.3140 O.3     1  LIG1      -0.6699999999999999
      9 O          -2.5471    0.3810    0.1059 O.3     1  LIG1      -0.6600000000000001
     10 O          -0.5483    1.4498    0.2174 O.3     1  LIG1      -0.5199999999999996
     11 H           1.2470    2.3804    0.3451 H       1  LIG1       0.18000000000000005
     12 H           0.8743    1.7525   -1.2789 H       1  LIG1       0.16000000000000003
     13 H           2.5925    0.3141   -0.2707 H       1  LIG1       0.16000000000000003
     14 H           1.3303   -1.8792   -0.0479 H       1  LIG1       0.17000000000000004
     15 H          -1.1426   -1.7480   -0.6646 H       1  LIG1       0.16000000000000003
     16 H          -1.2514    0.5575   -1.5088 H       1  LIG1          0.14
     17 H           0.8591   -0.1985    1.8838 H       1  LIG1       0.42000000000000004
     18 H           0.7970   -0.2118   -2.2722 H       1  LIG1       0.43000000000000005
     19 H          -1.5954   -0.8619    1.5784 H       1  LIG1       0.43999999999999995
     20 H          -2.8355    1.3066    0.1729 H       1  LIG1       0.43999999999999995
@<TRIPOS>BOND
     1    18     7    1
     2     7     3    1
     3    16     5    1
     4    12     1    1
     5    15     4    1
     6     3     4    1
     7     3    14    1
     8     3     2    1
     9     5     4    1
    10     5     9    1
    11     5    10    1
    12    13     2    1
    13     1     2    1
    14     1    10    1
    15     1    11    1
    16     4     8    1
    17     9    20    1
    18     2     6    1
    19     8    19    1
    20     6    17    1
