@<TRIPOS>MOLECULE
SRDGSXVLAVRBLU-UHFFFAOYSA-O	11083997	-1179.4333936996586
 34 35 0 0 0
SMALL
MULLIKEN NwChem

@<TRIPOS>ATOM
      1 C          -1.7751   -0.0062    2.3373 C.3     1  LIG1      -0.5499999999999998
      2 C           5.6342   -0.3642   -0.2938 C.3     1  LIG1      -0.5199999999999996
      3 C          -3.7244   -1.2756    0.1083 C.3     1  LIG1       -0.33999999999999986
      4 C          -4.8815   -0.9242   -0.8416 C.3     1  LIG1       -0.05999999999999961
      5 C           2.7530    1.8538   -0.0056 C.ar    1  LIG1       0.009999999999999787
      6 C           0.4357    1.5820    1.0232 C.3     1  LIG1       -0.2599999999999998
      7 C          -0.6536    0.8600   -1.0603 C.ar    1  LIG1       -0.08999999999999986
      8 C          -1.6817    0.1299    0.8488 C.ar    1  LIG1       0.40000000000000036
      9 C           4.2726    0.1559    0.0567 C.ar    1  LIG1       0.4500000000000002
     10 C           1.8010    1.0844    0.6607 C.ar    1  LIG1       0.08000000000000007
     11 C          -2.5109   -0.4115   -0.0987 C.ar    1  LIG1       -0.20999999999999996
     12 C           2.2275   -0.2126    0.9925 C.ar    1  LIG1       0.5199999999999996
     13 N           3.9740    1.4127   -0.3127 N.ar    1  LIG1      -0.4900000000000002
     14 N           3.4318   -0.6768    0.7021 N.ar    1  LIG1        -0.54
     15 N          -0.6385    0.8582    0.2662 N.ar    1  LIG1      -0.3600000000000003
     16 O          -4.4707   -1.0219   -2.2022 O.3     1  LIG1      -0.6400000000000006
     17 O           1.3628   -1.0280    1.6317 O.3     1  LIG1      -0.6199999999999992
     18 S          -1.9581   -0.0002   -1.7137 S.2     1  LIG1      0.41000000000000014
     19 H          -0.8665   -0.4692    2.7351 H       1  LIG1       0.20999999999999996
     20 H          -1.9195    0.9646    2.8248 H       1  LIG1       0.20999999999999996
     21 H          -2.6204   -0.6393    2.6081 H       1  LIG1       0.20999999999999996
     22 H           5.8625   -1.2697    0.2707 H       1  LIG1       0.18000000000000005
     23 H           5.6717   -0.5999   -1.3648 H       1  LIG1       0.19999999999999996
     24 H           6.3906    0.4028   -0.1071 H       1  LIG1       0.18999999999999995
     25 H          -4.0657   -1.1791    1.1439 H       1  LIG1       0.19999999999999996
     26 H          -3.4474   -2.3290   -0.0373 H       1  LIG1       0.19999999999999996
     27 H          -5.7428   -1.5686   -0.6279 H       1  LIG1       0.17000000000000004
     28 H          -5.1912    0.1145   -0.6923 H       1  LIG1       0.17000000000000004
     29 H           2.5217    2.8796   -0.2961 H       1  LIG1       0.18999999999999995
     30 H           0.3279    2.6466    0.7976 H       1  LIG1          0.24
     31 H           0.2253    1.4378    2.0818 H       1  LIG1          0.24
     32 H           0.1000    1.3738   -1.6428 H       1  LIG1          0.28
     33 H          -4.5105   -1.9514   -2.4793 H       1  LIG1       0.43999999999999995
     34 H           1.8373   -1.8651    1.8003 H       1  LIG1       0.45999999999999996
@<TRIPOS>BOND
     1    33    16    1
     2    16     4    1
     3    18     7   ar
     4    18    11   ar
     5    32     7    1
     6    23     2    1
     7     7    15   ar
     8     4    28    1
     9     4    27    1
    10     4     3    1
    11    13     5   ar
    12    13     9   ar
    13    29     5    1
    14     2    24    1
    15     2     9    1
    16     2    22    1
    17    11     3    1
    18    11     8   ar
    19    26     3    1
    20     5    10   ar
    21     9    14   ar
    22     3    25    1
    23    15     8   ar
    24    15     6    1
    25    10    12   ar
    26    10     6    1
    27    14    12   ar
    28    30     6    1
    29     8     1    1
    30    12    17    1
    31     6    31    1
    32    17    34    1
    33     1    21    1
    34     1    19    1
    35     1    20    1
