@<TRIPOS>MOLECULE
SRNWOUGRCWSEMX-TYASJMOZSA-L	11083996	-2593.9655059417482
 57 60 0 0 0
SMALL
MULLIKEN NwChem

@<TRIPOS>ATOM
      1 C          -0.8084   -0.1016    0.4766 C.3     1  LIG1       -0.08999999999999986
      2 C           4.3725   -0.6900   -0.0963 C.3     1  LIG1       -0.05999999999999961
      3 C          -8.4657    0.7276    0.5389 C.ar    1  LIG1       0.16000000000000014
      4 C          -4.3162    1.3384   -0.5954 C.ar    1  LIG1       0.21999999999999975
      5 C          -1.9644   -0.9312    1.0489 C.3     1  LIG1       0.08999999999999986
      6 C           5.7332   -0.1408    0.3489 C.3     1  LIG1       0.11000000000000032
      7 C          -6.3919    1.7240   -0.7983 C.ar    1  LIG1       0.1900000000000004
      8 C          -2.6849   -1.8414    0.0324 C.3     1  LIG1       0.08999999999999986
      9 C           6.0774    1.1813   -0.3157 C.3     1  LIG1       0.05999999999999961
     10 C          -4.1387   -1.8463    0.5769 C.3     1  LIG1       0.08999999999999986
     11 C           6.7878    0.7260   -1.6045 C.3     1  LIG1       0.07000000000000028
     12 C          -7.6937    2.1658   -1.0845 C.ar    1  LIG1       0.4500000000000002
     13 C          -6.2759    0.7522    0.2097 C.ar    1  LIG1          0.54
     14 C          -4.2676   -0.4613    1.2290 C.3     1  LIG1       0.2599999999999998
     15 C           7.5788   -0.4928   -1.0683 C.3     1  LIG1       0.2999999999999998
     16 N          -7.9392    3.0871   -2.0759 N.pl3   1  LIG1      -0.7800000000000002
     17 N          -8.7323    1.6603   -0.3980 N.ar    1  LIG1        -0.54
     18 N          -7.2911    0.2161    0.9078 N.ar    1  LIG1      -0.5499999999999998
     19 N          -5.1527    2.0836   -1.2920 N.ar    1  LIG1      -0.5800000000000001
     20 N          -4.9274    0.5141    0.3233 N.ar    1  LIG1      -0.5199999999999996
     21 O          -2.2312   -3.1669   -0.0019 O.3     1  LIG1      -0.7300000000000004
     22 O           7.0382    1.9010    0.4896 O.3     1  LIG1      -0.6799999999999997
     23 O          -4.2424   -2.8441    1.5673 O.3     1  LIG1      -0.6899999999999995
     24 O           7.6475    1.7156   -2.1648 O.3     1  LIG1      -0.6799999999999997
     25 O           8.8431   -0.0322   -0.5562 O.3     1  LIG1      -0.6699999999999999
     26 O           0.1117   -3.0621    0.9688 O.3     1  LIG1      -0.7200000000000006
     27 O           1.9999   -2.4546   -0.7597 O.2     1  LIG1      -0.6600000000000001
     28 O           1.7125    1.3063    1.8246 O.2     1  LIG1      -0.6699999999999999
     29 O           3.7253   -0.1541    2.7350 O.3     1  LIG1      -0.6799999999999997
     30 O           0.0580   -0.8651   -0.3505 O.3     1  LIG1      -0.5999999999999996
     31 O           3.3550    0.2456    0.2101 O.3     1  LIG1      -0.5899999999999999
     32 O          -2.9835    0.0057    1.5229 O.3     1  LIG1      -0.5500000000000007
     33 O           6.7871   -1.0728   -0.0868 O.3     1  LIG1      -0.5299999999999994
     34 O           1.7600   -1.2737    1.5635 O.3     1  LIG1      -0.6699999999999999
     35 P           1.0431   -2.0393    0.3102 P.3     1  LIG1          1.17
     36 P           2.6488    0.1392    1.7278 P.3     1  LIG1       1.1300000000000008
     37 H          -1.2409    0.6683   -0.1791 H       1  LIG1       0.17000000000000004
     38 H          -0.2498    0.4104    1.2670 H       1  LIG1       0.18999999999999995
     39 H           4.1992   -1.6624    0.3707 H       1  LIG1       0.16000000000000003
     40 H           4.3554   -0.8551   -1.1806 H       1  LIG1       0.16000000000000003
     41 H          -9.3370    0.3451    1.0690 H       1  LIG1       0.16000000000000003
     42 H          -3.2397    1.3501   -0.6848 H       1  LIG1       0.20999999999999996
     43 H          -1.6302   -1.5360    1.8954 H       1  LIG1       0.17000000000000004
     44 H           5.7478   -0.0681    1.4381 H       1  LIG1       0.18000000000000005
     45 H          -2.6505   -1.3745   -0.9659 H       1  LIG1       0.15000000000000002
     46 H           5.1802    1.7852   -0.4773 H       1  LIG1       0.17000000000000004
     47 H          -4.8974   -1.9844   -0.2096 H       1  LIG1       0.16000000000000003
     48 H           6.0587    0.4160   -2.3592 H       1  LIG1       0.17000000000000004
     49 H          -4.8969   -0.5114    2.1237 H       1  LIG1       0.18000000000000005
     50 H           7.8382   -1.2353   -1.8300 H       1  LIG1       0.17000000000000004
     51 H          -8.8206    3.5760   -1.9968 H       1  LIG1          0.37
     52 H          -7.1426    3.6470   -2.3509 H       1  LIG1          0.37
     53 H          -1.2477   -3.1834    0.3239 H       1  LIG1          0.47
     54 H           7.3730    2.5911   -0.1105 H       1  LIG1       0.43000000000000005
     55 H          -3.4873   -3.4350    1.3272 H       1  LIG1       0.42000000000000004
     56 H           8.5284    1.4507   -1.8318 H       1  LIG1       0.43000000000000005
     57 H           8.5827    0.5340    0.2011 H       1  LIG1       0.42000000000000004
@<TRIPOS>BOND
     1    48    11    1
     2    52    16    1
     3    24    56    1
     4    24    11    1
     5    16    51    1
     6    16    12    1
     7    50    15    1
     8    11    15    1
     9    11     9    1
    10    19     7   ar
    11    19     4   ar
    12    40     2    1
    13    12     7   ar
    14    12    17   ar
    15    15    25    1
    16    15    33    1
    17    45     8    1
    18     7    13   ar
    19    27    35    2
    20    42     4    1
    21     4    20   ar
    22    25    57    1
    23    46     9    1
    24    17     3   ar
    25    30    35    1
    26    30     1    1
    27     9     6    1
    28     9    22    1
    29    47    10    1
    30    37     1    1
    31    54    22    1
    32     2    31    1
    33     2     6    1
    34     2    39    1
    35    33     6    1
    36    21     8    1
    37    21    53    1
    38     8    10    1
    39     8     5    1
    40    13    20   ar
    41    13    18   ar
    42    31    36    1
    43    35    26    1
    44    35    34    1
    45    20    14    1
    46     6    44    1
    47     1     5    1
    48     1    38    1
    49     3    18   ar
    50     3    41    1
    51    10    14    1
    52    10    23    1
    53     5    32    1
    54     5    43    1
    55    14    32    1
    56    14    49    1
    57    55    23    1
    58    34    36    1
    59    36    28    2
    60    36    29    1
