@<TRIPOS>MOLECULE
SUHOQUVVVLNYQR-MRVPVSSYSA-N	6045260	-1164.1617285696896
 36 35 0 0 0
SMALL
MULLIKEN NwChem

@<TRIPOS>ATOM
      1 C           3.0821    1.0265   -0.3929 C.3     1  LIG1      -0.3600000000000003
      2 C           2.8523    2.7197    1.3809 C.3     1  LIG1      -0.33000000000000007
      3 C           0.9001    2.0762    0.0389 C.3     1  LIG1      -0.3799999999999999
      4 C           1.8942    0.5071    1.7537 C.3     1  LIG1      -0.16999999999999993
      5 C           1.4298   -0.8630    1.2721 C.3     1  LIG1       -0.05999999999999961
      6 C          -2.9127   -0.0111    1.1882 C.3     1  LIG1       -0.08999999999999986
      7 C          -2.2686   -0.1568   -1.2820 C.3     1  LIG1       -0.08000000000000007
      8 C          -3.3865    0.0971   -0.2613 C.3     1  LIG1       0.11000000000000032
      9 N           2.1769    1.5716    0.6877 N.4     1  LIG1       -0.34999999999999964
     10 O          -1.8428    0.9090    1.4414 O.3     1  LIG1      -0.7100000000000009
     11 O          -3.9188    1.3981   -0.5128 O.3     1  LIG1      -0.6699999999999999
     12 O           0.5442   -2.8293   -0.8851 O.3     1  LIG1      -0.6500000000000004
     13 O           0.6627   -0.3324   -1.7571 O.2     1  LIG1      -0.7100000000000009
     14 O           0.1499   -0.8047    0.6969 O.3     1  LIG1      -0.6400000000000006
     15 O          -1.5870   -1.3879   -1.0063 O.3     1  LIG1      -0.5600000000000005
     16 P           0.0414   -1.4334   -0.9220 P.3     1  LIG1       1.1999999999999993
     17 H           3.3983    1.8645   -1.0172 H       1  LIG1       0.20999999999999996
     18 H           2.5063    0.3153   -0.9953 H       1  LIG1          0.24
     19 H           3.9506    0.5637    0.0804 H       1  LIG1       0.20999999999999996
     20 H           3.0394    3.5112    0.6535 H       1  LIG1       0.21999999999999997
     21 H           2.1959    3.0916    2.1701 H       1  LIG1       0.21999999999999997
     22 H           3.7977    2.3796    1.8083 H       1  LIG1       0.21999999999999997
     23 H           0.5365    1.2925   -0.6317 H       1  LIG1          0.25
     24 H           0.1741    2.3176    0.8159 H       1  LIG1       0.19999999999999996
     25 H           1.1588    2.9695   -0.5339 H       1  LIG1       0.20999999999999996
     26 H           2.8288    0.3923    2.3122 H       1  LIG1       0.21999999999999997
     27 H           1.1390    0.9433    2.4136 H       1  LIG1       0.21999999999999997
     28 H           2.1567   -1.3246    0.5945 H       1  LIG1       0.18000000000000005
     29 H           1.4061   -1.4934    2.1736 H       1  LIG1       0.18000000000000005
     30 H          -3.7437    0.2592    1.8488 H       1  LIG1       0.16000000000000003
     31 H          -2.5988   -1.0381    1.4083 H       1  LIG1       0.16000000000000003
     32 H          -1.5751    0.6892   -1.2606 H       1  LIG1       0.17000000000000004
     33 H          -2.6946   -0.2036   -2.2892 H       1  LIG1       0.16000000000000003
     34 H          -4.2061   -0.6139   -0.4188 H       1  LIG1       0.15000000000000002
     35 H          -1.0410    0.3980    1.2057 H       1  LIG1          0.47
     36 H          -3.2789    2.0080   -0.1055 H       1  LIG1       0.42000000000000004
@<TRIPOS>BOND
     1    33     7    1
     2    13    16    2
     3     7    32    1
     4     7    15    1
     5     7     8    1
     6    17     1    1
     7    15    16    1
     8    18     1    1
     9    16    12    1
    10    16    14    1
    11    23     3    1
    12    25     3    1
    13    11     8    1
    14    11    36    1
    15    34     8    1
    16     1    19    1
    17     1     9    1
    18     8     6    1
    19     3     9    1
    20     3    24    1
    21    28     5    1
    22    20     2    1
    23     9     2    1
    24     9     4    1
    25    14     5    1
    26     6    31    1
    27     6    10    1
    28     6    30    1
    29    35    10    1
    30     5     4    1
    31     5    29    1
    32     2    22    1
    33     2    21    1
    34     4    26    1
    35     4    27    1
