@<TRIPOS>MOLECULE
SUHOOTKUPISOBE-UHFFFAOYSA-M	6045259	-777.5779733625906
 15 14 0 0 0
SMALL
MULLIKEN NwChem

@<TRIPOS>ATOM
      1 C          -1.2743   -1.7958   -0.4815 C.3     1  LIG1       -0.16000000000000014
      2 C          -1.7074   -0.6361    0.4389 C.3     1  LIG1       -0.040000000000000036
      3 N          -1.1880   -1.4697   -1.9073 N.3     1  LIG1        -0.79
      4 O           0.7986    2.2751    0.3189 O.3     1  LIG1      -0.6699999999999999
      5 O           0.8698    0.0494    1.6914 O.3     1  LIG1      -0.7400000000000002
      6 O           1.2076   -0.0855   -0.8222 O.2     1  LIG1      -0.7300000000000004
      7 O          -1.1009    0.6122    0.1567 O.3     1  LIG1      -0.5899999999999999
      8 P           0.5607    0.8051    0.2196 P.3     1  LIG1       1.0899999999999999
      9 H          -1.9812   -2.6283   -0.3224 H       1  LIG1          0.14
     10 H          -0.2828   -2.1473   -0.1805 H       1  LIG1       0.15000000000000002
     11 H          -2.7883   -0.4681    0.3075 H       1  LIG1          0.14
     12 H          -1.5398   -0.9209    1.4903 H       1  LIG1          0.14
     13 H          -1.9766   -0.8642   -2.1449 H       1  LIG1       0.31000000000000005
     14 H          -0.3601   -0.8669   -1.9731 H       1  LIG1       0.32999999999999996
     15 H           1.4432   -0.6915    1.4423 H       1  LIG1       0.43999999999999995
@<TRIPOS>BOND
     1    13     3    1
     2    14     3    1
     3     3     1    1
     4     6     8    2
     5     1     9    1
     6     1    10    1
     7     1     2    1
     8     7     8    1
     9     7     2    1
    10     8     4    1
    11     8     5    1
    12    11     2    1
    13     2    12    1
    14    15     5    1
