@<TRIPOS>MOLECULE
SUYVUBYJARFZHO-RRKCRQDMSA-J	11083994	-2589.4452986164615
 42 44 0 0 0
SMALL
MULLIKEN NwChem

@<TRIPOS>ATOM
      1 C          -0.6955   -1.7889    0.5207 C.3     1  LIG1       -0.3099999999999996
      2 C           0.1853    1.0844   -1.0405 C.3     1  LIG1       -0.09999999999999964
      3 C          -5.2317   -3.2088    2.7577 C.ar    1  LIG1       0.15000000000000036
      4 C          -3.6961   -0.7590   -0.5105 C.ar    1  LIG1       0.20999999999999996
      5 C           0.5582   -0.9115    0.5683 C.3     1  LIG1       0.040000000000000036
      6 C          -0.0102    0.5140    0.3629 C.3     1  LIG1       0.11000000000000032
      7 C          -1.7614   -0.8714    1.1299 C.3     1  LIG1       0.2999999999999998
      8 C          -5.2000   -1.9599    0.4006 C.ar    1  LIG1       0.20000000000000018
      9 C          -6.3499   -2.6577    0.8265 C.ar    1  LIG1       0.41000000000000014
     10 C          -4.1001   -1.9669    1.2868 C.ar    1  LIG1       0.5300000000000002
     11 N          -7.5117   -2.7216    0.0187 N.pl3   1  LIG1      -0.7800000000000002
     12 N          -6.3578   -3.2754    2.0246 N.ar    1  LIG1      -0.5300000000000002
     13 N          -4.0615   -2.5960    2.4843 N.ar    1  LIG1        -0.54
     14 N          -4.9373   -1.2002   -0.7169 N.ar    1  LIG1      -0.5800000000000001
     15 N          -3.1459   -1.1913    0.6766 N.ar    1  LIG1      -0.5099999999999998
     16 O           1.1541   -1.0366    1.8553 O.3     1  LIG1      -0.7400000000000002
     17 O           4.8662   -1.7456   -0.8182 O.3     1  LIG1      -0.8000000000000007
     18 O           2.5684   -1.1599   -1.8545 O.3     1  LIG1      -0.7599999999999998
     19 O           4.7342   -0.7448   -3.1815 O.2     1  LIG1      -0.7899999999999991
     20 O           0.9969    3.6089    1.0372 O.3     1  LIG1      -0.7300000000000004
     21 O           1.2428    4.7277   -1.3194 O.2     1  LIG1      -0.6899999999999995
     22 O           4.7863    2.5081    0.5773 O.2     1  LIG1      -0.6999999999999993
     23 O           2.8999    0.7745    1.0581 O.3     1  LIG1      -0.7100000000000009
     24 O           0.0510    2.4954   -1.1208 O.3     1  LIG1      -0.6099999999999994
     25 O          -1.4702    0.4185    0.6963 O.3     1  LIG1      -0.5600000000000005
     26 O           4.2235    0.7611   -1.1980 O.3     1  LIG1      -0.6699999999999999
     27 O           2.5842    2.5965   -0.7934 O.3     1  LIG1      -0.6899999999999995
     28 P           4.0811   -0.8542   -1.7920 P.3     1  LIG1       0.9000000000000004
     29 P           1.2556    3.4921   -0.4469 P.3     1  LIG1       1.0999999999999996
     30 P           3.6800    1.6195    0.0630 P.3     1  LIG1       1.1199999999999992
     31 H          -0.9679   -2.0041   -0.5207 H       1  LIG1       0.17000000000000004
     32 H          -0.5737   -2.7291    1.0677 H       1  LIG1       0.17000000000000004
     33 H          -0.5829    0.6509   -1.7068 H       1  LIG1       0.15000000000000002
     34 H           1.1636    0.7499   -1.4062 H       1  LIG1       0.18000000000000005
     35 H          -5.2756   -3.7242    3.7198 H       1  LIG1       0.17000000000000004
     36 H          -3.1319   -0.0963   -1.1499 H       1  LIG1       0.21999999999999997
     37 H           1.2806   -1.1588   -0.2249 H       1  LIG1       0.19999999999999996
     38 H           0.4338    1.1996    1.0848 H       1  LIG1       0.16000000000000003
     39 H          -1.7886   -0.9619    2.2266 H       1  LIG1       0.16000000000000003
     40 H          -7.5247   -1.9220   -0.6132 H       1  LIG1          0.36
     41 H          -8.3445   -2.7219    0.6063 H       1  LIG1          0.36
     42 H           1.9472   -0.4366    1.7383 H       1  LIG1       0.42000000000000004
@<TRIPOS>BOND
     1    19    28    2
     2    18    28    1
     3    28    26    1
     4    28    17    1
     5    33     2    1
     6    34     2    1
     7    21    29    2
     8    26    30    1
     9    36     4    1
    10    24     2    1
    11    24    29    1
    12     2     6    1
    13    27    29    1
    14    27    30    1
    15    14     4   ar
    16    14     8   ar
    17    40    11    1
    18    31     1    1
    19     4    15   ar
    20    29    20    1
    21    37     5    1
    22    11    41    1
    23    11     9    1
    24    30    22    2
    25    30    23    1
    26     6     5    1
    27     6    25    1
    28     6    38    1
    29     8     9   ar
    30     8    10   ar
    31     1     5    1
    32     1    32    1
    33     1     7    1
    34     5    16    1
    35    15     7    1
    36    15    10   ar
    37    25     7    1
    38     9    12   ar
    39     7    39    1
    40    10    13   ar
    41    42    16    1
    42    12     3   ar
    43    13     3   ar
    44     3    35    1
