@<TRIPOS>MOLECULE
SXDINBXHOHHTMY-RGGAHWMASA-H	11083993	-3475.643633375471
 81 88 0 0 0
SMALL
MULLIKEN NwChem

@<TRIPOS>ATOM
      1 C           2.3417    5.3579    0.1949 C.3     1  LIG1       -0.5700000000000003
      2 C          -2.9854    4.9231   -0.1453 C.3     1  LIG1       -0.5800000000000001
      3 C           5.2753   -2.0621    0.1076 C.3     1  LIG1       -0.5700000000000003
      4 C          -2.1188   -4.9400   -0.5985 C.3     1  LIG1       -0.5700000000000003
      5 C           4.7898    3.3724    0.2755 C.3     1  LIG1       -0.34999999999999964
      6 C           3.2922   -4.5042   -0.1866 C.3     1  LIG1       -0.34999999999999964
      7 C          -5.0776    2.5502   -0.2985 C.3     1  LIG1       -0.34999999999999964
      8 C          -4.5760   -2.9651   -0.5402 C.3     1  LIG1       -0.34999999999999964
      9 C           5.2335    4.0213    1.6147 C.3     1  LIG1       -0.3600000000000003
     10 C           3.9837   -4.9441   -1.5055 C.3     1  LIG1       -0.3600000000000003
     11 C          -5.7757    3.1661    0.9453 C.3     1  LIG1       -0.3600000000000003
     12 C          -5.1309   -3.7876    0.6545 C.3     1  LIG1       -0.3600000000000003
     13 C          -0.1978    3.5962    0.0180 C.2     1  LIG1       -0.3200000000000003
     14 C           3.5048    0.4819    0.1387 C.2     1  LIG1       -0.3200000000000003
     15 C           0.4128   -3.1909   -0.3003 C.2     1  LIG1       -0.3200000000000003
     16 C          -3.3057   -0.0793   -0.2535 C.2     1  LIG1       -0.3200000000000003
     17 C           2.2762    3.8575    0.1644 C.ar    1  LIG1       0.07000000000000028
     18 C          -2.6873    3.4521   -0.1361 C.ar    1  LIG1       0.05999999999999961
     19 C           3.7784   -1.9999    0.0125 C.ar    1  LIG1       0.05999999999999961
     20 C          -2.0599   -3.4459   -0.4564 C.ar    1  LIG1       0.07000000000000028
     21 C           3.3394    2.9809    0.2006 C.ar    1  LIG1       0.03000000000000025
     22 C           2.9133   -3.0497   -0.1148 C.ar    1  LIG1       0.03000000000000025
     23 C          -3.5806    2.4200   -0.2017 C.ar    1  LIG1       0.03000000000000025
     24 C          -3.1282   -2.5722   -0.4299 C.ar    1  LIG1       0.040000000000000036
     25 C           1.0817    3.0656    0.0803 C.ar    1  LIG1       0.33000000000000007
     26 C          -1.3658    2.8590   -0.0685 C.ar    1  LIG1       0.3099999999999996
     27 C           2.9733   -0.7924    0.0343 C.ar    1  LIG1       0.3099999999999996
     28 C          -0.8693   -2.6569   -0.3295 C.ar    1  LIG1       0.3200000000000003
     29 C           2.7691    1.6570    0.1380 C.ar    1  LIG1       0.3200000000000003
     30 C           1.5800   -2.4626   -0.1716 C.ar    1  LIG1       0.3099999999999996
     31 C          -2.7807    1.1982   -0.1796 C.ar    1  LIG1       0.2999999999999998
     32 C          -2.5631   -1.2529   -0.2941 C.ar    1  LIG1       0.3099999999999996
     33 C           6.0691    5.3476    1.4490 C.2     1  LIG1       0.5199999999999996
     34 C           5.2918   -5.7995   -1.3000 C.2     1  LIG1       0.5199999999999996
     35 C          -6.6977    4.4097    0.6432 C.2     1  LIG1       0.5199999999999996
     36 C          -5.8975   -5.1033    0.2445 C.2     1  LIG1       0.5199999999999996
     37 N           1.3803    1.7092    0.0586 N.ar    1  LIG1       -0.8499999999999996
     38 N          -1.4264    1.4798   -0.1047 N.ar    1  LIG1       -0.7999999999999998
     39 N           1.6268   -1.0822   -0.0734 N.ar    1  LIG1       -0.7999999999999998
     40 N          -1.1727   -1.3042   -0.2363 N.ar    1  LIG1       -0.8499999999999996
     41 O           5.7928    6.0521    0.4359 O.co2   1  LIG1       -0.6500000000000004
     42 O           6.8864    5.5889    2.3713 O.co2   1  LIG1       -0.6799999999999997
     43 O           5.5568   -6.6099   -2.2225 O.co2   1  LIG1       -0.6799999999999997
     44 O           5.9614   -5.5445   -0.2584 O.co2   1  LIG1       -0.6500000000000004
     45 O          -7.5749    4.6423    1.5110 O.co2   1  LIG1       -0.6899999999999995
     46 O          -6.4332    5.0673   -0.4042 O.co2   1  LIG1       -0.6500000000000004
     47 O          -6.7490   -5.5062    1.0745 O.co2   1  LIG1       -0.6899999999999995
     48 O          -5.5414   -5.6399   -0.8436 O.co2   1  LIG1       -0.6500000000000004
     49 FE          0.1006    0.1992   -0.0829 Fe      1  LIG1           1.0
     50 H           1.8517    5.7943   -0.6877 H       1  LIG1       0.17000000000000004
     51 H           1.8181    5.7609    1.0739 H       1  LIG1       0.17000000000000004
     52 H           3.3795    5.7123    0.2260 H       1  LIG1       0.18000000000000005
     53 H          -2.4456    5.4328   -0.9573 H       1  LIG1       0.16000000000000003
     54 H          -2.6646    5.4031    0.7913 H       1  LIG1       0.16000000000000003
     55 H          -4.0588    5.1099   -0.2725 H       1  LIG1       0.18000000000000005
     56 H           5.7495   -1.4862   -0.7005 H       1  LIG1       0.17000000000000004
     57 H           5.6361   -1.6285    1.0520 H       1  LIG1       0.16000000000000003
     58 H           5.6328   -3.0973    0.0424 H       1  LIG1       0.17000000000000004
     59 H          -1.5178   -5.2809   -1.4535 H       1  LIG1       0.17000000000000004
     60 H          -1.7087   -5.4404    0.2906 H       1  LIG1       0.17000000000000004
     61 H          -3.1496   -5.2882   -0.7377 H       1  LIG1       0.18000000000000005
     62 H           4.9860    4.1293   -0.4945 H       1  LIG1       0.16000000000000003
     63 H           5.4287    2.5112    0.0448 H       1  LIG1       0.15000000000000002
     64 H           4.0177   -4.7158    0.6085 H       1  LIG1       0.15000000000000002
     65 H           2.4159   -5.1357    0.0073 H       1  LIG1       0.15000000000000002
     66 H          -5.3144    3.2273   -1.1294 H       1  LIG1       0.15000000000000002
     67 H          -5.5264    1.5793   -0.5407 H       1  LIG1       0.15000000000000002
     68 H          -5.1992   -2.0790   -0.7093 H       1  LIG1       0.15000000000000002
     69 H          -4.6952   -3.6121   -1.4190 H       1  LIG1       0.16000000000000003
     70 H           4.3421    4.2937    2.1976 H       1  LIG1       0.15000000000000002
     71 H           5.7976    3.3154    2.2355 H       1  LIG1          0.13
     72 H           3.2945   -5.4921   -2.1589 H       1  LIG1          0.12
     73 H           4.2897   -4.0495   -2.0662 H       1  LIG1       0.15000000000000002
     74 H          -5.0157    3.5147    1.6585 H       1  LIG1       0.15000000000000002
     75 H          -6.3686    2.4172    1.4838 H       1  LIG1          0.13
     76 H          -4.2977   -4.1080    1.2960 H       1  LIG1       0.15000000000000002
     77 H          -5.7838   -3.1791    1.2911 H       1  LIG1          0.13
     78 H          -0.2898    4.6772    0.0428 H       1  LIG1       0.17000000000000004
     79 H           4.5831    0.5663    0.2181 H       1  LIG1       0.17000000000000004
     80 H           0.5004   -4.2688   -0.3817 H       1  LIG1       0.17000000000000004
     81 H          -4.3844   -0.1742   -0.2952 H       1  LIG1       0.17000000000000004
@<TRIPOS>BOND
     1    43    34   ar
     2    72    10    1
     3    73    10    1
     4    10    34    1
     5    10     6    1
     6    59     4    1
     7    69     8    1
     8    34    44   ar
     9    66     7    1
    10    53     2    1
    11    48    36   ar
    12    61     4    1
    13    68     8    1
    14    56     3    1
    15    50     1    1
    16     4    20    1
    17     4    60    1
    18    67     7    1
    19     8    24    1
    20     8    12    1
    21    62     5    1
    22    20    24   ar
    23    20    28   ar
    24    24    32   ar
    25    46    35   ar
    26    80    15    1
    27    28    15    2
    28    28    40   ar
    29    15    30    1
    30     7    23    1
    31     7    11    1
    32    81    16    1
    33    32    16    1
    34    32    40   ar
    35    55     2    1
    36    16    31    2
    37    40    49    1
    38    23    31   ar
    39    23    18   ar
    40     6    22    1
    41     6    65    1
    42     6    64    1
    43    31    38   ar
    44    30    22   ar
    45    30    39   ar
    46     2    18    1
    47     2    54    1
    48    18    26   ar
    49    22    19   ar
    50    38    49    1
    51    38    26   ar
    52    49    39    1
    53    49    37    1
    54    39    27   ar
    55    26    13    2
    56    19    27   ar
    57    19     3    1
    58    13    78    1
    59    13    25    1
    60    27    14    1
    61    58     3    1
    62    63     5    1
    63    37    25   ar
    64    37    29   ar
    65    25    17   ar
    66     3    57    1
    67    29    14    2
    68    29    21   ar
    69    14    79    1
    70    17     1    1
    71    17    21   ar
    72     1    52    1
    73     1    51    1
    74    21     5    1
    75    36    12    1
    76    36    47   ar
    77     5     9    1
    78    41    33   ar
    79    35    11    1
    80    35    45   ar
    81    12    77    1
    82    12    76    1
    83    11    75    1
    84    11    74    1
    85    33     9    1
    86    33    42   ar
    87     9    70    1
    88     9    71    1
