@<TRIPOS>MOLECULE
SXDXRJZUAJBNFL-XKSSXDPKSA-M	11083991	-1175.865686272055
 40 41 0 0 0
SMALL
MULLIKEN NwChem

@<TRIPOS>ATOM
      1 C          -3.3560   -2.8334    1.2517 C.3     1  LIG1            -0.54
      2 C          -0.6890   -3.1503   -0.1232 C.3     1  LIG1      -0.5700000000000003
      3 C           0.5026   -0.7503   -1.2526 C.3     1  LIG1       -0.20999999999999996
      4 C           3.9044    0.4616    1.3962 C.3     1  LIG1       -0.05999999999999961
      5 C          -2.6075   -1.6737    0.6292 C.ar    1  LIG1       0.20999999999999996
      6 C          -1.3894   -1.8234    0.0032 C.ar    1  LIG1       0.3700000000000001
      7 C           1.6674   -0.0631   -0.4825 C.3     1  LIG1       0.15000000000000036
      8 C           4.1754   -0.2182    0.0543 C.3     1  LIG1       0.11000000000000032
      9 C          -2.6528    0.6084    0.2456 C.ar    1  LIG1       0.1900000000000004
     10 C           2.9292   -0.9315   -0.5113 C.3     1  LIG1       0.05999999999999961
     11 C          -1.3377    0.5650   -0.3637 C.ar    1  LIG1       0.5899999999999999
     12 C          -3.3087    1.9821    0.3059 C.ar    1  LIG1       0.5099999999999998
     13 C          -1.2763    2.9123   -0.5046 C.ar    1  LIG1       0.6100000000000003
     14 N          -3.2412   -0.4578    0.7181 N.ar    1  LIG1      -0.5700000000000003
     15 N          -0.6737    1.6116   -0.7445 N.ar    1  LIG1      -0.6900000000000004
     16 N          -2.5506    3.0465   -0.0499 N.ar    1  LIG1      -0.6500000000000004
     17 N          -0.7775   -0.7050   -0.5356 N.ar    1  LIG1      -0.5300000000000002
     18 O           3.3080   -0.4881    2.3147 O.3     1  LIG1      -0.6699999999999999
     19 O           1.9971    1.1952   -1.0136 O.3     1  LIG1      -0.6999999999999993
     20 O           5.2489   -1.1513    0.1411 O.3     1  LIG1      -0.6799999999999997
     21 O           2.7170   -2.1587    0.2118 O.3     1  LIG1      -0.6799999999999997
     22 O          -4.4852    2.0463    0.6852 O.2     1  LIG1      -0.6400000000000006
     23 O          -0.5302    3.8664   -0.7524 O.2     1  LIG1      -0.6300000000000008
     24 H          -4.2960   -2.4465    1.6514 H       1  LIG1       0.17000000000000004
     25 H          -3.5929   -3.6242    0.5275 H       1  LIG1       0.18000000000000005
     26 H          -2.8028   -3.3023    2.0771 H       1  LIG1       0.18000000000000005
     27 H          -0.6870   -3.5109   -1.1613 H       1  LIG1       0.20999999999999996
     28 H          -1.1935   -3.9040    0.4825 H       1  LIG1       0.19999999999999996
     29 H           0.3570   -3.0903    0.1982 H       1  LIG1       0.19999999999999996
     30 H           0.7452   -1.7891   -1.4641 H       1  LIG1       0.20999999999999996
     31 H           0.3776   -0.2163   -2.1995 H       1  LIG1       0.18999999999999995
     32 H           3.2350    1.3117    1.2262 H       1  LIG1       0.17000000000000004
     33 H           4.8552    0.8213    1.8111 H       1  LIG1       0.15000000000000002
     34 H           1.3503    0.0113    0.5735 H       1  LIG1          0.14
     35 H           4.4755    0.5668   -0.6464 H       1  LIG1       0.16000000000000003
     36 H           3.1520   -1.2329   -1.5414 H       1  LIG1       0.16000000000000003
     37 H           2.7204    0.0024    2.9069 H       1  LIG1       0.44999999999999996
     38 H           1.1228    1.6814   -1.0177 H       1  LIG1       0.42000000000000004
     39 H           4.8223   -1.9894    0.3952 H       1  LIG1       0.42000000000000004
     40 H           2.6287   -1.8736    1.1445 H       1  LIG1       0.43000000000000005
@<TRIPOS>BOND
     1    31     3    1
     2    36    10    1
     3    30     3    1
     4     3    17    1
     5     3     7    1
     6    27     2    1
     7    38    19    1
     8    19     7    1
     9    23    13    2
    10    15    13   ar
    11    15    11   ar
    12    35     8    1
    13    17    11   ar
    14    17     6   ar
    15    10     7    1
    16    10     8    1
    17    10    21    1
    18    13    16   ar
    19     7    34    1
    20    11     9   ar
    21     2     6    1
    22     2    29    1
    23     2    28    1
    24    16    12   ar
    25     6     5   ar
    26     8    20    1
    27     8     4    1
    28    20    39    1
    29    21    40    1
    30     9    12   ar
    31     9    14   ar
    32    12    22    2
    33    25     1    1
    34     5    14   ar
    35     5     1    1
    36    32     4    1
    37     1    24    1
    38     1    26    1
    39     4    33    1
    40     4    18    1
    41    18    37    1
