@<TRIPOS>MOLECULE
SXFSQZDSUWACKX-UHFFFAOYSA-M	6045264	-818.6644917302957
 16 15 0 0 0
SMALL
MULLIKEN NwChem

@<TRIPOS>ATOM
      1 C          -0.0810   -1.3054   -1.8699 C.3     1  LIG1      -0.6200000000000001
      2 C          -0.7633    1.1459    0.3480 C.3     1  LIG1       -0.33999999999999986
      3 C           0.0493    1.3883   -0.9345 C.3     1  LIG1       -0.41999999999999993
      4 C          -0.3998   -0.1646    1.0641 C.2     1  LIG1       0.3899999999999997
      5 C           1.0732   -0.2485    1.5152 C.2     1  LIG1       0.4800000000000004
      6 O          -1.2489   -1.0266    1.2586 O.2     1  LIG1      -0.5399999999999991
      7 O           1.8709   -0.7009    0.6486 O.co2   1  LIG1      -0.6199999999999992
      8 O           1.2825    0.2113    2.6579 O.co2   1  LIG1      -0.6400000000000006
      9 S          -0.4734    0.4094   -2.4083 S.3     1  LIG1      -0.010000000000001563
     10 H           0.1340   -1.8904   -2.7700 H       1  LIG1       0.18999999999999995
     11 H          -0.9241   -1.7421   -1.3307 H       1  LIG1       0.18999999999999995
     12 H           0.7885   -1.2869   -1.2018 H       1  LIG1       0.19999999999999996
     13 H          -0.5230    1.9542    1.0550 H       1  LIG1       0.18000000000000005
     14 H          -1.8402    1.1571    0.1438 H       1  LIG1       0.16000000000000003
     15 H           1.1067    1.1852   -0.7443 H       1  LIG1       0.18999999999999995
     16 H          -0.0557    2.4290   -1.2644 H       1  LIG1       0.18999999999999995
@<TRIPOS>BOND
     1    10     1    1
     2     9     1    1
     3     9     3    1
     4     1    11    1
     5     1    12    1
     6    16     3    1
     7     3    15    1
     8     3     2    1
     9    14     2    1
    10     2    13    1
    11     2     4    1
    12     7     5   ar
    13     4     6    2
    14     4     5    1
    15     5     8   ar
