@<TRIPOS>MOLECULE
SXHMVNXROAUURW-FTYOSCRSSA-M	6045265	-1177.87509012708
 25 26 0 0 0
SMALL
MULLIKEN NwChem

@<TRIPOS>ATOM
      1 C          -2.0564    0.8348   -0.3902 C.3     1  LIG1       0.08999999999999986
      2 C          -2.1296   -0.7101   -0.3114 C.3     1  LIG1       0.08000000000000007
      3 C          -1.2068    1.4126    0.7648 C.3     1  LIG1       0.08999999999999986
      4 C          -0.7274   -1.3387   -0.3454 C.3     1  LIG1       0.1299999999999999
      5 C           0.1601    0.7346    0.9456 C.3     1  LIG1       0.09999999999999964
      6 C           0.1305   -0.8023    0.8314 C.3     1  LIG1       0.05999999999999961
      7 O          -1.6250    1.2623   -1.6631 O.3     1  LIG1      -0.6899999999999995
      8 O          -2.7746   -1.1431    0.9103 O.3     1  LIG1      -0.6699999999999999
      9 O          -1.9383    1.3233    1.9983 O.3     1  LIG1      -0.6899999999999995
     10 O          -0.2372   -1.0558   -1.6462 O.3     1  LIG1      -0.7200000000000006
     11 O           2.3354   -0.4476   -1.6222 O.2     1  LIG1      -0.6999999999999993
     12 O           3.5796    0.3995    0.5521 O.3     1  LIG1      -0.6400000000000006
     13 O           1.1093    1.1552   -0.0258 O.3     1  LIG1      -0.6199999999999992
     14 O           1.4930   -1.1752    0.7043 O.3     1  LIG1      -0.6199999999999992
     15 P           2.3427    0.0038   -0.1757 P.3     1  LIG1       1.1199999999999992
     16 H          -3.0741    1.2328   -0.2465 H       1  LIG1       0.15000000000000002
     17 H          -2.6861   -1.0765   -1.1854 H       1  LIG1       0.16000000000000003
     18 H          -1.0452    2.4765    0.5689 H       1  LIG1       0.16000000000000003
     19 H          -0.8200   -2.4285   -0.2040 H       1  LIG1          0.14
     20 H           0.5140    1.0009    1.9535 H       1  LIG1       0.16000000000000003
     21 H          -0.2686   -1.2487    1.7505 H       1  LIG1       0.18000000000000005
     22 H          -0.8710    0.6733   -1.8890 H       1  LIG1       0.43000000000000005
     23 H          -3.6711   -0.7709    0.8966 H       1  LIG1       0.43999999999999995
     24 H          -2.1661    0.3803    2.0880 H       1  LIG1       0.42000000000000004
     25 H           0.7693   -0.9728   -1.6685 H       1  LIG1       0.44999999999999996
@<TRIPOS>BOND
     1    22     7    1
     2    25    10    1
     3     7     1    1
     4    10     4    1
     5    11    15    2
     6    17     2    1
     7     1     2    1
     8     1    16    1
     9     1     3    1
    10     4     2    1
    11     4    19    1
    12     4     6    1
    13     2     8    1
    14    15    13    1
    15    15    12    1
    16    15    14    1
    17    13     5    1
    18    18     3    1
    19    14     6    1
    20     3     5    1
    21     3     9    1
    22     6     5    1
    23     6    21    1
    24    23     8    1
    25     5    20    1
    26     9    24    1
