@<TRIPOS>MOLECULE
SXLJFGXGVBWOOB-UHFFFAOYSA-L	6045266	-1243.6662587368999
 38 37 0 0 0
SMALL
MULLIKEN NwChem

@<TRIPOS>ATOM
      1 C          -1.7095    4.5632   -1.8424 C.3     1  LIG1      -0.5899999999999999
      2 C          -0.6047    1.4773   -0.2395 C.3     1  LIG1      -0.3099999999999996
      3 C          -0.0846    1.0567    1.1471 C.3     1  LIG1      -0.2599999999999998
      4 C          -2.1300    1.3818   -0.4096 C.3     1  LIG1      -0.2699999999999996
      5 C          -0.4238   -0.3953    1.5472 C.3     1  LIG1      -0.2699999999999996
      6 C          -2.9676    2.1650    0.6145 C.3     1  LIG1        -0.25
      7 C          -0.1307   -1.4507    0.4632 C.3     1  LIG1      -0.29000000000000004
      8 C          -2.6835    3.6696    0.7005 C.3     1  LIG1      -0.41999999999999993
      9 C           1.3283   -1.4886   -0.0592 C.3     1  LIG1       -0.15000000000000036
     10 C           2.2135   -2.4398    0.7757 C.3     1  LIG1       0.04999999999999982
     11 C           1.3299   -1.6491   -1.6272 C.2     1  LIG1       0.4900000000000002
     12 C           1.9282   -3.9871    0.6912 C.2     1  LIG1       0.5199999999999996
     13 O           3.5948   -2.2145    0.5068 O.3     1  LIG1      -0.7300000000000004
     14 O           0.7166   -0.7040   -2.2316 O.co2   1  LIG1      -0.6699999999999999
     15 O           1.9023   -2.6308   -2.1396 O.co2   1  LIG1      -0.6699999999999999
     16 O           2.9543   -4.6825    0.4227 O.co2   1  LIG1      -0.6799999999999997
     17 O           0.7771   -4.3907    0.9924 O.co2   1  LIG1      -0.6600000000000001
     18 S          -3.1843    4.6853   -0.7624 S.3     1  LIG1      -0.010000000000001563
     19 H          -1.8867    5.2272   -2.6946 H       1  LIG1       0.18999999999999995
     20 H          -1.5515    3.5459   -2.2026 H       1  LIG1       0.19999999999999996
     21 H          -0.8131    4.8978   -1.3116 H       1  LIG1       0.18999999999999995
     22 H          -0.1280    0.8337   -1.0008 H       1  LIG1       0.16000000000000003
     23 H          -0.2737    2.5098   -0.4386 H       1  LIG1          0.12
     24 H           1.0060    1.1718    1.1343 H       1  LIG1          0.13
     25 H          -0.4502    1.7465    1.9296 H       1  LIG1          0.12
     26 H          -2.4219    0.3270   -0.3469 H       1  LIG1          0.14
     27 H          -2.4108    1.7027   -1.4227 H       1  LIG1          0.13
     28 H           0.1342   -0.6366    2.4649 H       1  LIG1          0.12
     29 H          -1.4921   -0.4505    1.8238 H       1  LIG1          0.13
     30 H          -2.7835    1.7505    1.6163 H       1  LIG1       0.15000000000000002
     31 H          -4.0384    2.0233    0.4099 H       1  LIG1          0.14
     32 H          -0.3698   -2.4474    0.8495 H       1  LIG1          0.13
     33 H          -0.7854   -1.2602   -0.3943 H       1  LIG1          0.13
     34 H          -1.6217    3.8591    0.8890 H       1  LIG1       0.18999999999999995
     35 H          -3.2438    4.1126    1.5331 H       1  LIG1       0.18000000000000005
     36 H           1.7785   -0.4937    0.0824 H       1  LIG1          0.12
     37 H           2.0195   -2.1852    1.8414 H       1  LIG1       0.09999999999999998
     38 H           3.8353   -3.1367    0.2296 H       1  LIG1           0.39
@<TRIPOS>BOND
     1    19     1    1
     2    14    11   ar
     3    20     1    1
     4    15    11   ar
     5     1    21    1
     6     1    18    1
     7    11     9    1
     8    27     4    1
     9    22     2    1
    10    18     8    1
    11    23     2    1
    12     4    26    1
    13     4     2    1
    14     4     6    1
    15    33     7    1
    16     2     3    1
    17     9    36    1
    18     9     7    1
    19     9    10    1
    20    38    13    1
    21    31     6    1
    22    16    12   ar
    23     7    32    1
    24     7     5    1
    25    13    10    1
    26     6     8    1
    27     6    30    1
    28    12    10    1
    29    12    17   ar
    30     8    34    1
    31     8    35    1
    32    10    37    1
    33    24     3    1
    34     3     5    1
    35     3    25    1
    36     5    29    1
    37     5    28    1
