@<TRIPOS>MOLECULE
SYKWLIJQEHRDNH-CKRMAKSASA-I	11083990	-4248.19580817836
 93 95 0 0 0
SMALL
MULLIKEN NwChem

@<TRIPOS>ATOM
      1 C           1.8460   -1.9755    0.8333 C.3     1  LIG1      -0.4800000000000004
      2 C           2.0406   -0.1114   -0.8588 C.3     1  LIG1      -0.46999999999999975
      3 C          16.5252   -0.7081   -0.2280 C.3     1  LIG1      -0.2400000000000002
      4 C          17.2167   -0.1698   -1.4893 C.3     1  LIG1       -0.3700000000000001
      5 C          15.6625    0.3331    0.5221 C.3     1  LIG1       -0.33999999999999986
      6 C           6.8726    1.3626    0.8640 C.3     1  LIG1       -0.33000000000000007
      7 C           5.9280    0.2835    1.4219 C.3     1  LIG1       -0.1200000000000001
      8 C          10.5611    1.9322    0.9124 C.3     1  LIG1       -0.11000000000000032
      9 C          11.3406    0.6195    0.6812 C.3     1  LIG1       -0.41999999999999993
     10 C          -6.5153    0.8507   -1.8976 C.3     1  LIG1       -0.08999999999999986
     11 C          -0.0507   -0.4328    0.5399 C.3     1  LIG1       -0.04999999999999982
     12 C         -11.4415    2.2361    1.5115 C.ar    1  LIG1       0.15000000000000036
     13 C          -9.7370   -1.7142    2.0839 C.ar    1  LIG1       0.23000000000000043
     14 C          -7.3170   -0.4011   -1.5897 C.3     1  LIG1       0.1299999999999999
     15 C           8.3670    1.2491    1.2659 C.2     1  LIG1           0.5
     16 C          18.4847    0.7237   -1.2212 C.2     1  LIG1       0.5199999999999996
     17 C          14.1988    0.3515    0.0757 C.2     1  LIG1       0.2699999999999996
     18 C         -10.8473   -0.0423    2.7402 C.ar    1  LIG1       0.1900000000000004
     19 C          -9.7498   -0.7181   -1.5353 C.3     1  LIG1       0.08999999999999986
     20 C          -8.5476   -0.6045   -2.5146 C.3     1  LIG1       0.05999999999999961
     21 C           2.1136    0.4026    1.6393 C.3     1  LIG1       0.08000000000000007
     22 C         -11.5730    0.9528    3.4123 C.ar    1  LIG1       0.4400000000000004
     23 C         -10.4536    0.2510    1.4215 C.ar    1  LIG1          0.54
     24 C           3.6376    0.0939    1.9227 C.2     1  LIG1       0.5099999999999998
     25 C          -9.0144   -1.0977   -0.2381 C.3     1  LIG1       0.2599999999999998
     26 C           1.4923   -0.5064    0.5198 C.3     1  LIG1       0.07000000000000028
     27 N         -12.0174    0.7695    4.7111 N.pl3   1  LIG1      -0.7800000000000002
     28 N           9.2085    1.8462    0.4068 N.am    1  LIG1      -0.6299999999999999
     29 N           4.5243    0.5748    1.0920 N.am    1  LIG1      -0.6100000000000003
     30 N         -11.8681    2.1005    2.7854 N.ar    1  LIG1        -0.54
     31 N         -10.7420    1.3851    0.7646 N.ar    1  LIG1      -0.5300000000000002
     32 N         -10.3894   -1.2838    3.1423 N.ar    1  LIG1      -0.5700000000000003
     33 N          -9.7447   -0.8576    1.0073 N.ar    1  LIG1      -0.5199999999999996
     34 O           8.6643    0.6920    2.3641 O.2     1  LIG1      -0.7100000000000009
     35 O          18.6692    1.0934   -0.0285 O.co2   1  LIG1      -0.6699999999999999
     36 O          19.1833    0.9720   -2.2390 O.co2   1  LIG1      -0.6899999999999995
     37 O          13.8556    0.1933   -1.0817 O.2     1  LIG1      -0.4800000000000004
     38 O         -10.7004   -1.6711   -1.9504 O.3     1  LIG1      -0.6899999999999995
     39 O           1.4370    0.1750    2.8714 O.3     1  LIG1      -0.7200000000000006
     40 O           3.7920   -0.6185    2.9852 O.2     1  LIG1      -0.7300000000000004
     41 O          -7.4450   -0.4484   -5.1265 O.3     1  LIG1      -0.7100000000000009
     42 O          -8.2147   -2.9702   -5.4743 O.2     1  LIG1      -0.6799999999999997
     43 O          -6.1490   -2.4374   -4.0805 O.3     1  LIG1        -0.75
     44 O          -4.2354   -0.8519   -2.7431 O.3     1  LIG1      -0.6500000000000004
     45 O          -3.3851    1.6420   -2.7606 O.2     1  LIG1      -0.6999999999999993
     46 O          -2.1638    2.5938   -0.6768 O.3     1  LIG1      -0.7100000000000009
     47 O          -2.5430    1.3027    1.5656 O.2     1  LIG1      -0.6099999999999994
     48 O          -5.2895    0.8947   -1.1736 O.3     1  LIG1      -0.5800000000000001
     49 O          -0.5501    0.8022   -0.0507 O.3     1  LIG1      -0.5299999999999994
     50 O          -7.8416   -0.3375   -0.2277 O.3     1  LIG1      -0.5299999999999994
     51 O          -8.5003   -1.8257   -3.2169 O.3     1  LIG1      -0.6500000000000004
     52 O          -2.9395    0.1460   -0.7326 O.3     1  LIG1      -0.6400000000000006
     53 P          -7.5606   -1.8824   -4.6780 P.3     1  LIG1       1.0999999999999996
     54 P          -3.9417    0.4339   -2.0278 P.3     1  LIG1          1.17
     55 P          -2.0849    1.2388    0.1575 P.3     1  LIG1       1.1899999999999995
     56 S          13.0539    0.6137    1.4468 S.3     1  LIG1      0.02999999999999936
     57 H           2.9298   -2.1159    0.7922 H       1  LIG1       0.15000000000000002
     58 H           1.3725   -2.6625    0.1161 H       1  LIG1          0.14
     59 H           1.5190   -2.2348    1.8463 H       1  LIG1          0.14
     60 H           3.1341   -0.0921   -0.8181 H       1  LIG1       0.15000000000000002
     61 H           1.6930    0.8890   -1.1363 H       1  LIG1          0.14
     62 H           1.6975   -0.8129   -1.6345 H       1  LIG1          0.14
     63 H          15.8974   -1.5775   -0.4735 H       1  LIG1          0.13
     64 H          17.3087   -1.0445    0.4613 H       1  LIG1          0.14
     65 H          16.4954    0.4021   -2.0886 H       1  LIG1          0.14
     66 H          17.5371   -1.0042   -2.1315 H       1  LIG1          0.13
     67 H          16.1045    1.3235    0.3555 H       1  LIG1       0.18999999999999995
     68 H          15.6990    0.1650    1.6049 H       1  LIG1       0.17000000000000004
     69 H           6.7935    1.4215   -0.2292 H       1  LIG1       0.10999999999999999
     70 H           6.5092    2.3361    1.2339 H       1  LIG1          0.12
     71 H           6.0944    0.1976    2.5044 H       1  LIG1       0.09999999999999998
     72 H           6.2283   -0.6983    1.0062 H       1  LIG1       0.09999999999999998
     73 H          11.1083    2.7427    0.3971 H       1  LIG1       0.09999999999999998
     74 H          10.5995    2.1401    2.0000 H       1  LIG1       0.08999999999999997
     75 H          11.4842    0.4007   -0.3811 H       1  LIG1       0.18000000000000005
     76 H          10.7922   -0.1894    1.1680 H       1  LIG1       0.18000000000000005
     77 H          -6.3604    0.8735   -2.9839 H       1  LIG1       0.18000000000000005
     78 H          -7.1034    1.7327   -1.6102 H       1  LIG1       0.18000000000000005
     79 H          -0.4015   -0.5036    1.5725 H       1  LIG1       0.17000000000000004
     80 H          -0.4712   -1.2549   -0.0557 H       1  LIG1       0.16000000000000003
     81 H         -11.7020    3.1802    1.0353 H       1  LIG1       0.17000000000000004
     82 H          -9.2153   -2.6602    2.0166 H       1  LIG1       0.21999999999999997
     83 H          -6.6622   -1.2742   -1.6761 H       1  LIG1       0.17000000000000004
     84 H         -10.2305    0.2541   -1.3956 H       1  LIG1       0.17000000000000004
     85 H          -8.6643    0.2263   -3.2179 H       1  LIG1       0.17000000000000004
     86 H           1.9903    1.4506    1.3339 H       1  LIG1       0.09999999999999998
     87 H          -8.8161   -2.1830   -0.2619 H       1  LIG1       0.17000000000000004
     88 H         -12.1642    1.6404    5.2066 H       1  LIG1          0.37
     89 H         -11.4780    0.0842    5.2274 H       1  LIG1          0.37
     90 H         -10.1992   -2.1644   -2.6441 H       1  LIG1       0.43999999999999995
     91 H           2.1866   -0.2917    3.3507 H       1  LIG1          0.39
     92 H          -5.5414   -1.7380   -3.7368 H       1  LIG1          0.47
     93 H          -2.5654    2.4015   -1.5929 H       1  LIG1           0.48
@<TRIPOS>BOND
     1    42    53    2
     2    41    53    1
     3    53    43    1
     4    53    51    1
     5    43    92    1
     6    85    20    1
     7    51    20    1
     8    77    10    1
     9    45    54    2
    10    44    54    1
    11    90    38    1
    12    20    14    1
    13    20    19    1
    14    36    16   ar
    15    66     4    1
    16    65     4    1
    17    54    48    1
    18    54    52    1
    19    38    19    1
    20    10    78    1
    21    10    14    1
    22    10    48    1
    23    83    14    1
    24    62     2    1
    25    93    46    1
    26    14    50    1
    27    19    84    1
    28    19    25    1
    29     4    16    1
    30     4     3    1
    31    16    35   ar
    32    61     2    1
    33    37    17    2
    34     2    60    1
    35     2    26    1
    36    52    55    1
    37    46    55    1
    38    63     3    1
    39    75     9    1
    40    87    25    1
    41    25    50    1
    42    25    33    1
    43    69     6    1
    44     3    64    1
    45     3     5    1
    46    80    11    1
    47    49    55    1
    48    49    11    1
    49    17     5    1
    50    17    56    1
    51    58     1    1
    52    55    47    2
    53    67     5    1
    54    73     8    1
    55    28     8    1
    56    28    15   am
    57    26    11    1
    58    26     1    1
    59    26    21    1
    60     5    68    1
    61    11    79    1
    62     9     8    1
    63     9    76    1
    64     9    56    1
    65    31    23   ar
    66    31    12   ar
    67    57     1    1
    68     1    59    1
    69     6    70    1
    70     6    15    1
    71     6     7    1
    72     8    74    1
    73    72     7    1
    74    33    23   ar
    75    33    13   ar
    76    81    12    1
    77    29     7    1
    78    29    24   am
    79    15    34    2
    80    86    21    1
    81    23    18   ar
    82     7    71    1
    83    12    30   ar
    84    21    24    1
    85    21    39    1
    86    24    40    2
    87    82    13    1
    88    13    32   ar
    89    18    32   ar
    90    18    22   ar
    91    30    22   ar
    92    39    91    1
    93    22    27    1
    94    27    88    1
    95    27    89    1
