@<TRIPOS>MOLECULE
SZBGXBOFCGNPEU-UHFFFAOYSA-O	6045268	-327.4522748998091
 19 18 0 0 0
SMALL
MULLIKEN NwChem

@<TRIPOS>ATOM
      1 C           0.3197    0.1989   -1.0542 C.3     1  LIG1      -0.2699999999999996
      2 C          -0.1854   -1.2465   -1.2096 C.3     1  LIG1      -0.29000000000000004
      3 C           0.0113    0.8654    0.3016 C.3     1  LIG1       -0.3899999999999997
      4 C           0.3562   -2.2599   -0.2003 C.3     1  LIG1      -0.17999999999999972
      5 C           0.2957    2.3675    0.2758 C.2     1  LIG1       0.2699999999999996
      6 N          -0.4075   -2.1920    1.1277 N.4     1  LIG1       -0.7199999999999998
      7 O          -0.5273    3.1970    0.5701 O.2     1  LIG1      -0.4399999999999995
      8 H          -0.1433    0.7895   -1.8530 H       1  LIG1       0.17000000000000004
      9 H           1.4011    0.2266   -1.2374 H       1  LIG1       0.17000000000000004
     10 H          -1.2848   -1.2729   -1.2010 H       1  LIG1       0.18000000000000005
     11 H           0.1078   -1.6147   -2.1995 H       1  LIG1       0.18999999999999995
     12 H          -1.0432    0.7533    0.5860 H       1  LIG1       0.18000000000000005
     13 H           0.6566    0.4451    1.0942 H       1  LIG1       0.19999999999999996
     14 H           0.2410   -3.2897   -0.5454 H       1  LIG1       0.22999999999999998
     15 H           1.4066   -2.0854    0.0478 H       1  LIG1       0.22999999999999998
     16 H           1.3226    2.6453   -0.0457 H       1  LIG1          0.14
     17 H          -1.4021   -2.4108    0.9900 H       1  LIG1      0.43999999999999995
     18 H          -0.0360   -2.8539    1.8205 H       1  LIG1      0.44999999999999996
     19 H          -0.3580   -1.2471    1.5300 H       1  LIG1      0.43999999999999995
@<TRIPOS>BOND
     1    11     2    1
     2     8     1    1
     3     9     1    1
     4     2    10    1
     5     2     1    1
     6     2     4    1
     7     1     3    1
     8    14     4    1
     9     4    15    1
    10     4     6    1
    11    16     5    1
    12     5     3    1
    13     5     7    2
    14     3    12    1
    15     3    13    1
    16    17     6    1
    17     6    19    1
    18     6    18    1
