@<TRIPOS>MOLECULE
SZKXTJUOKARGIY-MTKBYBFRSA-J	11083987	-3578.786448840923
 77 81 0 0 0
SMALL
MULLIKEN NwChem

@<TRIPOS>ATOM
      1 C         -10.2700    0.8913   -1.2689 C.3     1  LIG1      -0.3200000000000003
      2 C          -9.0879    0.4009   -2.1159 C.3     1  LIG1      -0.2999999999999998
      3 C          -8.9143    0.1148    0.6383 C.2     1  LIG1       -0.019999999999999574
      4 C          -3.7262    2.3070    0.0109 C.3     1  LIG1       -0.08000000000000007
      5 C           2.5356   -0.4113    0.5422 C.3     1  LIG1       -0.08000000000000007
      6 C           4.9631    1.8453   -2.6290 C.ar    1  LIG1       0.15000000000000036
      7 C           7.8669   -0.8377   -0.7789 C.ar    1  LIG1       0.1900000000000004
      8 C         -10.1309    0.4296    0.1621 C.2     1  LIG1       0.04999999999999982
      9 C          -4.4478    1.2768    0.8736 C.3     1  LIG1       0.16000000000000014
     10 C           3.4290   -1.6266    0.8078 C.3     1  LIG1       0.1200000000000001
     11 C          -7.7532    0.7112   -1.4373 C.3     1  LIG1       0.23000000000000043
     12 C           7.3302    0.7634   -2.0731 C.ar    1  LIG1       0.20000000000000018
     13 C          -4.0490   -0.1823    0.5564 C.3     1  LIG1       0.03000000000000025
     14 C           4.2595   -1.6406    2.1112 C.3     1  LIG1       0.09999999999999964
     15 C          -5.3286   -0.7786   -0.0766 C.3     1  LIG1       0.09999999999999964
     16 C           5.5535   -0.9170    1.6321 C.3     1  LIG1       0.09999999999999964
     17 C           7.2267    1.8029   -3.0022 C.ar    1  LIG1       0.41999999999999993
     18 C         -11.3495    0.3212    1.0696 C.2     1  LIG1       0.3799999999999999
     19 C           6.1213    0.3235   -1.4875 C.ar    1  LIG1       0.5300000000000002
     20 C          -6.4584    0.0614    0.5595 C.3     1  LIG1          0.25
     21 C           5.6948   -1.5570    0.2351 C.3     1  LIG1       0.2699999999999996
     22 N           8.3614    2.3211   -3.6306 N.pl3   1  LIG1      -0.7800000000000002
     23 N         -12.4930    0.6261    0.4582 N.am    1  LIG1      -0.8099999999999996
     24 N           6.0334    2.3422   -3.2918 N.ar    1  LIG1        -0.54
     25 N           4.9128    0.8601   -1.7349 N.ar    1  LIG1      -0.5300000000000002
     26 N           8.4096    0.0303   -1.6219 N.ar    1  LIG1      -0.5899999999999999
     27 N          -7.7149    0.1108   -0.1156 N.pl3   1  LIG1      -0.4500000000000002
     28 N           6.4920   -0.7247   -0.6792 N.ar    1  LIG1      -0.5300000000000002
     29 O          -7.6048    2.1346   -1.4121 O.3     1  LIG1      -0.6899999999999995
     30 O          -3.7727   -0.9384    1.7263 O.3     1  LIG1      -0.7200000000000006
     31 O           4.4515   -2.9748    2.4736 O.3     1  LIG1        -0.75
     32 O          -5.4501   -2.1615    0.1731 O.3     1  LIG1      -0.6899999999999995
     33 O         -11.1642   -0.0382    2.2747 O.2     1  LIG1      -0.7300000000000004
     34 O           8.1451   -2.7800    1.3246 O.2     1  LIG1        -0.75
     35 O           8.8326   -1.6648    3.5818 O.3     1  LIG1      -0.7300000000000004
     36 O           6.7807   -3.2664    3.4684 O.3     1  LIG1      -0.7699999999999996
     37 O          -1.5457    1.0741   -1.5794 O.2     1  LIG1      -0.7400000000000002
     38 O          -0.5090    3.4382   -1.0041 O.3     1  LIG1      -0.6199999999999992
     39 O          -0.3120   -0.9243   -0.4975 O.3     1  LIG1      -0.7300000000000004
     40 O          -1.1080   -0.5205    1.9631 O.2     1  LIG1      -0.6300000000000008
     41 O          -2.3790    2.3984    0.4644 O.3     1  LIG1      -0.5800000000000001
     42 O           1.3572   -0.5113    1.3977 O.3     1  LIG1      -0.5199999999999996
     43 O          -5.8657    1.3988    0.6459 O.3     1  LIG1      -0.5600000000000005
     44 O           4.3837   -1.7019   -0.2812 O.3     1  LIG1      -0.5500000000000007
     45 O           6.6902   -0.8963    2.4198 O.3     1  LIG1      -0.6600000000000001
     46 O          -0.0779    1.3982    0.5085 O.3     1  LIG1      -0.6400000000000006
     47 P           7.7456   -2.2967    2.7387 P.3     1  LIG1           1.0
     48 P          -1.1236    2.1505   -0.5848 P.3     1  LIG1       1.1799999999999997
     49 P          -0.1167   -0.1760    0.9006 P.3     1  LIG1       1.2599999999999998
     50 H         -11.2243    0.5372   -1.6708 H       1  LIG1          0.14
     51 H         -10.3086    1.9897   -1.3081 H       1  LIG1          0.13
     52 H          -9.0792    0.8684   -3.1097 H       1  LIG1          0.14
     53 H          -9.1472   -0.6873   -2.2543 H       1  LIG1       0.15000000000000002
     54 H          -8.8214   -0.2141    1.6692 H       1  LIG1          0.13
     55 H          -4.2103    3.2862    0.1266 H       1  LIG1       0.17000000000000004
     56 H          -3.7783    2.0141   -1.0441 H       1  LIG1       0.17000000000000004
     57 H           3.0372    0.5322    0.7704 H       1  LIG1       0.18999999999999995
     58 H           2.2422   -0.4036   -0.5101 H       1  LIG1       0.18000000000000005
     59 H           4.0106    2.3174   -2.8660 H       1  LIG1       0.16000000000000003
     60 H           8.3536   -1.5765   -0.1228 H       1  LIG1       0.22999999999999998
     61 H          -4.2226    1.4750    1.9293 H       1  LIG1       0.15000000000000002
     62 H           2.8044   -2.5264    0.7785 H       1  LIG1       0.16000000000000003
     63 H          -6.9290    0.2758   -2.0216 H       1  LIG1       0.15000000000000002
     64 H          -3.1987   -0.2152   -0.1320 H       1  LIG1       0.17000000000000004
     65 H           3.7561   -1.0496    2.9006 H       1  LIG1          0.13
     66 H          -5.3119   -0.6151   -1.1598 H       1  LIG1       0.17000000000000004
     67 H           5.2668    0.1373    1.4517 H       1  LIG1          0.14
     68 H          -6.6326   -0.3246    1.5717 H       1  LIG1       0.16000000000000003
     69 H           6.2226   -2.5097    0.3187 H       1  LIG1       0.17000000000000004
     70 H           8.1516    2.7058   -4.5444 H       1  LIG1          0.36
     71 H           9.1292    1.6584   -3.6330 H       1  LIG1          0.36
     72 H         -13.2099    0.5088    1.1907 H       1  LIG1       0.21999999999999997
     73 H          -6.9114    2.2927   -0.7436 H       1  LIG1       0.42000000000000004
     74 H          -2.7963   -0.8629    1.8836 H       1  LIG1       0.45999999999999996
     75 H           5.3874   -3.0920    2.9150 H       1  LIG1       0.43999999999999995
     76 H          -4.8532   -2.2897    0.9412 H       1  LIG1       0.42000000000000004
     77 H          -0.8023   -0.2817   -1.1183 H       1  LIG1           0.48
@<TRIPOS>BOND
     1    70    22    1
     2    71    22    1
     3    22    17    1
     4    24    17   ar
     5    24     6   ar
     6    52     2    1
     7    17    12   ar
     8    59     6    1
     9     6    25   ar
    10    53     2    1
    11     2    11    1
    12     2     1    1
    13    12    26   ar
    14    12    19   ar
    15    63    11    1
    16    25    19   ar
    17    50     1    1
    18    26     7   ar
    19    37    48    2
    20    19    28   ar
    21    11    29    1
    22    11    27    1
    23    29    73    1
    24    51     1    1
    25     1     8    1
    26    66    15    1
    27    77    39    1
    28    56     4    1
    29    38    48    1
    30     7    28   ar
    31     7    60    1
    32    28    21    1
    33    48    41    1
    34    48    46    1
    35    58     5    1
    36    39    49    1
    37    44    21    1
    38    44    10    1
    39    64    13    1
    40    27    20    1
    41    27     3    1
    42    15    32    1
    43    15    13    1
    44    15    20    1
    45     4    55    1
    46     4    41    1
    47     4     9    1
    48     8     3    2
    49     8    18    1
    50    32    76    1
    51    21    69    1
    52    21    16    1
    53    23    18   am
    54    23    72    1
    55    46    49    1
    56     5    57    1
    57     5    10    1
    58     5    42    1
    59    13     9    1
    60    13    30    1
    61    20    43    1
    62    20    68    1
    63     3    54    1
    64    43     9    1
    65    62    10    1
    66    10    14    1
    67     9    61    1
    68    49    42    1
    69    49    40    2
    70    18    33    2
    71    34    47    2
    72    67    16    1
    73    16    14    1
    74    16    45    1
    75    30    74    1
    76    14    31    1
    77    14    65    1
    78    45    47    1
    79    31    75    1
    80    47    36    1
    81    47    35    1
