@<TRIPOS>MOLECULE
SZKXTJUOKARGIY-VPHRTNKSSA-J	11083986	-3578.783454395946
 77 81 0 0 0
SMALL
MULLIKEN NwChem

@<TRIPOS>ATOM
      1 C          -8.3988   -0.7276    0.3490 C.3     1  LIG1      -0.33000000000000007
      2 C          -7.1146   -0.9434   -0.4629 C.3     1  LIG1      -0.2999999999999998
      3 C          -7.9488    1.6414   -0.0296 C.2     1  LIG1       -0.03000000000000025
      4 C          -2.6921    1.2202    0.2444 C.3     1  LIG1       -0.08000000000000007
      5 C           1.9379   -2.6606    0.9273 C.3     1  LIG1       -0.1200000000000001
      6 C           6.6476    1.8718   -3.1339 C.ar    1  LIG1       0.16000000000000014
      7 C           4.1157    0.8803    0.2558 C.ar    1  LIG1       0.20999999999999996
      8 C          -8.8761    0.6998    0.2202 C.2     1  LIG1           0.0
      9 C          -3.3001    2.4994   -0.3148 C.3     1  LIG1       0.07000000000000028
     10 C           3.3651   -2.7538    0.4237 C.3     1  LIG1       0.15000000000000036
     11 C          -6.0261    0.0681   -0.0791 C.3     1  LIG1       0.23000000000000043
     12 C           5.1335    2.2644   -0.9875 C.ar    1  LIG1       0.1900000000000004
     13 C          -3.6791    3.4821    0.7885 C.3     1  LIG1       0.08000000000000007
     14 C           4.4688   -2.3595    1.4246 C.3     1  LIG1       0.13999999999999968
     15 C          -5.0677    2.9714    1.2131 C.3     1  LIG1       0.08000000000000007
     16 C           5.6363   -2.0697    0.4294 C.3     1  LIG1       0.07000000000000028
     17 C           5.6302    3.3577   -1.7079 C.ar    1  LIG1       0.4400000000000004
     18 C         -10.3949    0.9852    0.2226 C.2     1  LIG1       0.41000000000000014
     19 C           5.4698    0.9888   -1.4754 C.ar    1  LIG1          0.54
     20 C          -5.6763    2.5307   -0.1588 C.3     1  LIG1          0.25
     21 C           4.8810   -1.3699   -0.7280 C.3     1  LIG1          0.25
     22 N           5.3576    4.6593   -1.3134 N.pl3   1  LIG1      -0.7800000000000002
     23 N         -10.8549    2.1746    0.6021 N.am    1  LIG1      -0.8499999999999996
     24 N           6.3956    3.1549   -2.7926 N.ar    1  LIG1        -0.54
     25 N           6.2341    0.7477   -2.5533 N.ar    1  LIG1      -0.5300000000000002
     26 N           4.2836    2.1786    0.0951 N.ar    1  LIG1      -0.5700000000000003
     27 N          -6.5656    1.4095   -0.1827 N.pl3   1  LIG1      -0.4500000000000002
     28 N           4.8149    0.1041   -0.6512 N.ar    1  LIG1      -0.5099999999999998
     29 O          -5.5333   -0.1923    1.2410 O.3     1  LIG1      -0.6999999999999993
     30 O          -3.8268    4.8232    0.2564 O.3     1  LIG1      -0.6799999999999997
     31 O           4.6622   -3.3171    2.3951 O.3     1  LIG1      -0.7599999999999998
     32 O          -5.8288    3.9749    1.8681 O.3     1  LIG1      -0.6799999999999997
     33 O         -11.1145    0.0187   -0.1766 O.2     1  LIG1      -0.7200000000000006
     34 O           6.8592   -4.4257    2.0809 O.3     1  LIG1      -0.7899999999999991
     35 O           8.4496   -2.6591    1.0394 O.3     1  LIG1      -0.7599999999999998
     36 O           8.0897   -4.9732   -0.1436 O.2     1  LIG1      -0.7300000000000004
     37 O          -2.0343   -2.0115   -1.7602 O.2     1  LIG1      -0.6400000000000006
     38 O          -3.3084   -1.6583    0.5317 O.3     1  LIG1      -0.6899999999999995
     39 O           1.1143   -0.7145   -1.1829 O.3     1  LIG1      -0.7300000000000004
     40 O           0.5303    0.9645    0.7485 O.2     1  LIG1      -0.6099999999999994
     41 O          -2.3984    0.3333   -0.8325 O.3     1  LIG1      -0.5899999999999999
     42 O           1.5799   -1.2979    1.2586 O.3     1  LIG1      -0.5600000000000005
     43 O          -4.5439    2.3218   -1.0322 O.3     1  LIG1      -0.5500000000000007
     44 O           3.5392   -1.8687   -0.7216 O.3     1  LIG1      -0.5700000000000003
     45 O           6.1743   -3.2394   -0.0946 O.3     1  LIG1      -0.6600000000000001
     46 O          -0.8017   -1.2590    0.4235 O.3     1  LIG1      -0.6500000000000004
     47 P           7.5888   -3.8953    0.7988 P.3     1  LIG1       0.9800000000000004
     48 P          -2.2620   -1.2787   -0.4868 P.3     1  LIG1       1.1899999999999995
     49 P           0.5689   -0.4531    0.3074 P.3     1  LIG1          1.25
     50 H          -8.1906   -0.9743    1.4027 H       1  LIG1          0.13
     51 H          -9.2118   -1.3785    0.0099 H       1  LIG1          0.13
     52 H          -6.6910   -1.9436   -0.3109 H       1  LIG1          0.14
     53 H          -7.3338   -0.8296   -1.5343 H       1  LIG1          0.14
     54 H          -8.2364    2.6801   -0.1811 H       1  LIG1       0.15000000000000002
     55 H          -1.7624    1.4800    0.7672 H       1  LIG1       0.18000000000000005
     56 H          -3.3824    0.7491    0.9467 H       1  LIG1       0.16000000000000003
     57 H           1.8860   -3.2451    1.8511 H       1  LIG1       0.19999999999999996
     58 H           1.2186   -3.0650    0.2066 H       1  LIG1       0.19999999999999996
     59 H           7.2716    1.7455   -4.0187 H       1  LIG1       0.17000000000000004
     60 H           3.4670    0.4262    0.9911 H       1  LIG1       0.21999999999999997
     61 H          -2.5926    2.9417   -1.0265 H       1  LIG1       0.17000000000000004
     62 H           3.5728   -3.7840    0.1107 H       1  LIG1       0.16000000000000003
     63 H          -5.1855   -0.0018   -0.7775 H       1  LIG1       0.16000000000000003
     64 H          -2.9539    3.5531    1.6029 H       1  LIG1       0.18000000000000005
     65 H           4.1649   -1.3979    1.8875 H       1  LIG1          0.12
     66 H          -5.0094    2.1051    1.8733 H       1  LIG1       0.18000000000000005
     67 H           6.4167   -1.4233    0.8564 H       1  LIG1       0.15000000000000002
     68 H          -6.2515    3.3919   -0.5394 H       1  LIG1       0.16000000000000003
     69 H           5.3674   -1.5986   -1.6773 H       1  LIG1       0.18999999999999995
     70 H           5.3805    5.3193   -2.0811 H       1  LIG1          0.36
     71 H           4.5273    4.7272   -0.7347 H       1  LIG1          0.37
     72 H         -10.0554    2.7103    0.9617 H       1  LIG1          0.24
     73 H          -4.7631   -0.8021    1.1063 H       1  LIG1       0.44999999999999996
     74 H          -4.1525    4.6932   -0.6509 H       1  LIG1       0.43999999999999995
     75 H           5.6202   -3.8263    2.2394 H       1  LIG1       0.44999999999999996
     76 H          -5.5632    4.7946    1.4120 H       1  LIG1       0.42000000000000004
     77 H           2.0529   -1.0319   -1.1636 H       1  LIG1           0.48
@<TRIPOS>BOND
     1    59     6    1
     2     6    24   ar
     3     6    25   ar
     4    24    17   ar
     5    25    19   ar
     6    70    22    1
     7    37    48    2
     8    17    22    1
     9    17    12   ar
    10    69    21    1
    11    53     2    1
    12    19    12   ar
    13    19    28   ar
    14    22    71    1
    15    39    77    1
    16    39    49    1
    17    43     9    1
    18    43    20    1
    19    61     9    1
    20    12    26   ar
    21    41    48    1
    22    41     4    1
    23    63    11    1
    24    21    44    1
    25    21    28    1
    26    21    16    1
    27    44    10    1
    28    28     7   ar
    29    74    30    1
    30    68    20    1
    31    48    46    1
    32    48    38    1
    33     2    52    1
    34     2    11    1
    35     2     1    1
    36     9     4    1
    37     9    13    1
    38    27    20    1
    39    27    11    1
    40    27     3    1
    41    54     3    1
    42    33    18    2
    43    20    15    1
    44    36    47    2
    45    45    16    1
    46    45    47    1
    47    11    29    1
    48     3     8    2
    49    51     1    1
    50    26     7   ar
    51    62    10    1
    52    58     5    1
    53     8    18    1
    54     8     1    1
    55    18    23   am
    56     4    55    1
    57     4    56    1
    58     7    60    1
    59    30    13    1
    60    49    46    1
    61    49    40    2
    62    49    42    1
    63     1    50    1
    64    10     5    1
    65    10    14    1
    66    16    67    1
    67    16    14    1
    68    23    72    1
    69    13    15    1
    70    13    64    1
    71    47    35    1
    72    47    34    1
    73     5    42    1
    74     5    57    1
    75    73    29    1
    76    15    32    1
    77    15    66    1
    78    76    32    1
    79    14    65    1
    80    14    31    1
    81    75    31    1
