@<TRIPOS>MOLECULE
TUHVEAJXIMEOSA-UHFFFAOYSA-N	6119251	-511.5556621731145
 21 20 0 0 0
SMALL
MULLIKEN NwChem

@<TRIPOS>ATOM
      1 C           0.7901    0.5288    1.1246 C.3     1  LIG1      -0.2999999999999998
      2 C           0.5002    2.0281    0.9761 C.3     1  LIG1       -0.3700000000000001
      3 C          -0.2646   -0.3455    0.4410 C.3     1  LIG1       -0.16000000000000014
      4 C           0.5044    2.5023   -0.4663 C.2     1  LIG1       0.6100000000000003
      5 C          -0.5984   -2.7815    0.0249 C.cat   1  LIG1          0.71
      6 N          -0.1241   -3.9989    0.3990 N.pl3   1  LIG1         -0.5
      7 N          -1.5830   -2.5657   -0.8594 N.pl3   1  LIG1      -0.7300000000000004
      8 N           0.0143   -1.7635    0.6418 N.pl3   1  LIG1         -0.5
      9 O           0.4080    1.7776   -1.4401 O.2     1  LIG1      -0.5099999999999998
     10 O           0.6055    3.8346   -0.5415 O.3     1  LIG1      -0.5700000000000003
     11 H           0.8351    0.2870    2.1934 H       1  LIG1       0.18999999999999995
     12 H           1.7701    0.3023    0.6888 H       1  LIG1       0.18000000000000005
     13 H          -0.4752    2.2886    1.4093 H       1  LIG1       0.20999999999999996
     14 H           1.2386    2.6097    1.5362 H       1  LIG1       0.19999999999999996
     15 H          -1.2730   -0.1350    0.8301 H       1  LIG1       0.21999999999999997
     16 H          -0.2599   -0.1274   -0.6355 H       1  LIG1       0.22999999999999998
     17 H          -0.6086   -4.7669   -0.0803 H       1  LIG1          0.39
     18 H          -1.8825   -1.6353   -1.1242 H       1  LIG1       0.42000000000000004
     19 H          -2.0172   -3.3392   -1.3450 H       1  LIG1       0.42000000000000004
     20 H           0.7419   -2.0513    1.2930 H       1  LIG1       0.42000000000000004
     21 H           0.5785    4.0895   -1.4846 H       1  LIG1       0.44999999999999996
@<TRIPOS>BOND
     1    21    10    1
     2     9     4    2
     3    19     7    1
     4    18     7    1
     5     7     5    1
     6    16     3    1
     7    10     4    1
     8     4     2    1
     9    17     6    1
    10     5     6    2
    11     5     8    1
    12     3     8    1
    13     3    15    1
    14     3     1    1
    15     8    20    1
    16    12     1    1
    17     2     1    1
    18     2    13    1
    19     2    14    1
    20     1    11    1
