@<TRIPOS>MOLECULE
TWAIOPPFLZEXCO-UHFFFAOYSA-M	6045276	-936.5284433863724
 25 24 0 0 0
SMALL
MULLIKEN NwChem

@<TRIPOS>ATOM
      1 C          -0.6969    3.6528   -0.7403 C.3     1  LIG1      -0.5899999999999999
      2 C          -0.8935    0.1184   -0.5651 C.3     1  LIG1      -0.28000000000000025
      3 C           0.6383    0.2245   -0.6770 C.3     1  LIG1      -0.2699999999999996
      4 C          -1.4819    0.4232    0.8199 C.3     1  LIG1      -0.2599999999999998
      5 C           1.4032   -0.5596    0.4112 C.3     1  LIG1       -0.3600000000000003
      6 C          -1.1735    1.8099    1.3960 C.3     1  LIG1      -0.41999999999999993
      7 C           0.9355   -2.0175    0.5111 C.2     1  LIG1       0.3799999999999999
      8 C           1.2235   -2.8708   -0.7384 C.2     1  LIG1       0.4800000000000004
      9 O           0.3412   -2.4051    1.5144 O.2     1  LIG1      -0.5399999999999991
     10 O           0.3454   -2.7380   -1.6324 O.co2   1  LIG1      -0.6300000000000008
     11 O           2.2945   -3.5134   -0.7221 O.co2   1  LIG1      -0.6400000000000006
     12 S          -1.9482    3.2518    0.5333 S.3     1  LIG1      -0.010000000000001563
     13 H          -1.0134    4.5873   -1.2142 H       1  LIG1       0.18999999999999995
     14 H          -0.6220    2.8731   -1.5009 H       1  LIG1       0.19999999999999996
     15 H           0.2861    3.8058   -0.2830 H       1  LIG1       0.18999999999999995
     16 H          -1.1511   -0.9108   -0.8397 H       1  LIG1          0.14
     17 H          -1.3619    0.7710   -1.3161 H       1  LIG1          0.14
     18 H           0.9205   -0.1820   -1.6533 H       1  LIG1       0.15000000000000002
     19 H           0.9658    1.2745   -0.6493 H       1  LIG1       0.15000000000000002
     20 H          -1.1044   -0.3235    1.5307 H       1  LIG1       0.15000000000000002
     21 H          -2.5723    0.2976    0.7829 H       1  LIG1          0.14
     22 H           2.4733   -0.5602    0.1633 H       1  LIG1       0.17000000000000004
     23 H           1.2804   -0.0969    1.3993 H       1  LIG1       0.16000000000000003
     24 H          -0.0941    1.9949    1.4430 H       1  LIG1       0.18999999999999995
     25 H          -1.5521    1.8800    2.4224 H       1  LIG1       0.18000000000000005
@<TRIPOS>BOND
     1    18     3    1
     2    10     8   ar
     3    14     1    1
     4    17     2    1
     5    13     1    1
     6    16     2    1
     7     1    15    1
     8     1    12    1
     9     8    11   ar
    10     8     7    1
    11     3    19    1
    12     3     2    1
    13     3     5    1
    14     2     4    1
    15    22     5    1
    16     5     7    1
    17     5    23    1
    18     7     9    2
    19    12     6    1
    20    21     4    1
    21     4     6    1
    22     4    20    1
    23     6    24    1
    24     6    25    1
