@<TRIPOS>MOLECULE
TYEYBOSBBBHJIV-UHFFFAOYSA-M	6045277	-381.19917352767476
 12 11 0 0 0
SMALL
MULLIKEN NwChem

@<TRIPOS>ATOM
      1 C           0.5704    2.4993   -0.4338 C.3     1  LIG1      -0.4500000000000002
      2 C          -0.1942    1.1950   -0.6464 C.3     1  LIG1       -0.34999999999999964
      3 C           0.2947    0.0454    0.2484 C.2     1  LIG1       0.3700000000000001
      4 C          -0.5115   -1.2739    0.1014 C.2     1  LIG1       0.46999999999999975
      5 O           1.2140    0.2277    1.0393 O.2     1  LIG1      -0.5299999999999994
      6 O           0.1310   -2.2983   -0.2104 O.co2   1  LIG1      -0.6500000000000004
      7 O          -1.7405   -1.0900    0.3116 O.co2   1  LIG1      -0.6500000000000004
      8 H           0.4649    2.8426    0.6013 H       1  LIG1       0.15000000000000002
      9 H           0.2127    3.2939   -1.1024 H       1  LIG1       0.15000000000000002
     10 H           1.6426    2.3528   -0.6071 H       1  LIG1       0.15000000000000002
     11 H          -1.2670    1.3019   -0.4529 H       1  LIG1       0.17000000000000004
     12 H          -0.1171    0.8549   -1.6908 H       1  LIG1       0.17000000000000004
@<TRIPOS>BOND
     1    12     2    1
     2     9     1    1
     3     2    11    1
     4     2     1    1
     5     2     3    1
     6    10     1    1
     7     1     8    1
     8     6     4   ar
     9     4     3    1
    10     4     7   ar
    11     3     5    2
