@<TRIPOS>MOLECULE
TZGPACAKMCUCKX-UHFFFAOYSA-N	6045278	-284.3558499120478
 10 9 0 0 0
SMALL
MULLIKEN NwChem

@<TRIPOS>ATOM
      1 C           0.4248    0.9421    0.1757 C.3     1  LIG1       -0.09999999999999964
      2 C          -0.0721   -0.3927   -0.3555 C.3     1  LIG1       0.46999999999999975
      3 N          -0.9217   -1.1729    0.1724 N.3     1  LIG1      -0.6900000000000004
      4 O          -0.0114    1.1890    1.4999 O.3     1  LIG1      -0.6500000000000004
      5 O           0.5173   -0.6874   -1.5396 O.3     1  LIG1      -0.6099999999999994
      6 H           0.0148    1.7442   -0.4473 H       1  LIG1       0.19999999999999996
      7 H           1.5192    0.9811    0.0719 H       1  LIG1       0.18000000000000005
      8 H          -1.2695   -0.7562    1.0391 H       1  LIG1       0.31999999999999995
      9 H           0.4792    0.5931    2.0876 H       1  LIG1       0.43999999999999995
     10 H           0.1254   -1.5309   -1.8334 H       1  LIG1       0.43999999999999995
@<TRIPOS>BOND
     1    10     5    1
     2     5     2    1
     3     6     1    1
     4     2     3    1
     5     2     1    1
     6     7     1    1
     7     3     8    1
     8     1     4    1
     9     4     9    1
