@<TRIPOS>MOLECULE
TZZSWAXSIGWXOS-UHFFFAOYSA-M	11083985	-554.3770471341603
 23 22 0 0 0
SMALL
MULLIKEN NwChem

@<TRIPOS>ATOM
      1 C          -3.8737   -1.1200    0.3523 C.3     1  LIG1             -0.54
      2 C           0.6407    0.7402   -0.6365 C.3     1  LIG1        -0.25
      3 C           0.2458    0.1477    0.7242 C.3     1  LIG1      -0.3099999999999996
      4 C           2.1479    0.7291   -0.9737 C.3     1  LIG1       -0.3899999999999997
      5 C          -1.2429   -0.2639    0.7422 C.3     1  LIG1       -0.11000000000000032
      6 C          -2.6986   -1.6809   -0.5075 C.2     1  LIG1       0.45999999999999996
      7 C           3.0257    1.5855   -0.0756 C.2     1  LIG1       0.5899999999999999
      8 N          -1.4597   -1.2443   -0.2801 N.am    1  LIG1      -0.5999999999999996
      9 O          -3.0091   -2.5287   -1.3775 O.2     1  LIG1      -0.7100000000000009
     10 O           3.6772    2.5369   -0.4420 O.2     1  LIG1      -0.5099999999999998
     11 O           3.0707    1.2121    1.2370 O.3     1  LIG1      -0.5999999999999996
     12 H          -3.7123   -1.2813    1.4289 H       1  LIG1       0.15000000000000002
     13 H          -4.7993   -1.6190    0.0518 H       1  LIG1          0.12
     14 H          -3.9952   -0.0346    0.2173 H       1  LIG1       0.15000000000000002
     15 H           0.1209    0.1248   -1.3799 H       1  LIG1       0.15000000000000002
     16 H           0.2550    1.7657   -0.7227 H       1  LIG1          0.14
     17 H           0.8292   -0.7730    0.9009 H       1  LIG1          0.13
     18 H           0.4505    0.8547    1.5442 H       1  LIG1          0.13
     19 H           2.3137    1.0817   -1.9955 H       1  LIG1       0.17000000000000004
     20 H           2.5097   -0.3085   -0.9176 H       1  LIG1       0.18999999999999995
     21 H          -1.4675   -0.6075    1.7788 H       1  LIG1       0.09999999999999998
     22 H          -1.8319    0.6782    0.6307 H       1  LIG1       0.08999999999999997
     23 H           2.4378    0.4874    1.3827 H       1  LIG1       0.45999999999999996
@<TRIPOS>BOND
     1    19     4    1
     2    15     2    1
     3     9     6    2
     4     4    20    1
     5     4     2    1
     6     4     7    1
     7    16     2    1
     8     2     3    1
     9     6     8   am
    10     6     1    1
    11    10     7    2
    12     8     5    1
    13     7    11    1
    14    13     1    1
    15    14     1    1
    16     1    12    1
    17    22     5    1
    18     3     5    1
    19     3    17    1
    20     3    18    1
    21     5    21    1
    22    11    23    1
