@<TRIPOS>MOLECULE
UASRYODFRYWBRC-UUOKFMHZSA-M	6045280	-1529.3769484055454
 34 37 0 0 0
SMALL
MULLIKEN NwChem

@<TRIPOS>ATOM
      1 C          -0.6773   -0.0776   -2.2408 C.3     1  LIG1       -0.040000000000000036
      2 C          -1.9010    0.6954    1.0644 C.ar    1  LIG1       0.16999999999999993
      3 C           0.0817   -1.1342   -1.4272 C.3     1  LIG1       0.08999999999999986
      4 C          -1.2689    2.7117    0.6454 C.ar    1  LIG1       0.08999999999999986
      5 C          -0.8451   -2.0471   -0.5825 C.3     1  LIG1       0.04999999999999982
      6 C          -0.3800   -1.8058    0.8804 C.3     1  LIG1       0.08000000000000007
      7 C          -0.1325    1.9381    0.5782 C.ar    1  LIG1       0.5700000000000003
      8 C          -1.1474    4.1825    0.4254 C.ar    1  LIG1           0.5
      9 C           0.3917   -0.4898    0.7752 C.3     1  LIG1       0.20999999999999996
     10 C           1.1925    3.8237   -0.0271 C.ar    1  LIG1       0.5599999999999996
     11 N           2.3747    4.1552   -0.4607 N.pl3   1  LIG1      -0.7999999999999998
     12 N          -2.3610    1.9124    0.9484 N.ar    1  LIG1      -0.5700000000000003
     13 N           1.1159    2.4186    0.3383 N.ar    1  LIG1      -0.7300000000000004
     14 N           0.1096    4.6269    0.1151 N.ar    1  LIG1      -0.6699999999999999
     15 N          -0.5023    0.6382    0.8734 N.ar    1  LIG1      -0.5199999999999996
     16 O           0.1911    0.7771   -2.9539 O.3     1  LIG1      -0.6600000000000001
     17 O          -2.1361    4.9228    0.5253 O.2     1  LIG1      -0.6600000000000001
     18 O           1.8575   -3.9933   -0.6680 O.3     1  LIG1      -0.6600000000000001
     19 O           0.1811   -5.4569    0.6414 O.2     1  LIG1      -0.5700000000000003
     20 O           1.0183   -0.5666   -0.5007 O.3     1  LIG1      -0.4900000000000002
     21 O          -0.6458   -3.4478   -0.8592 O.3     1  LIG1      -0.5600000000000005
     22 O           0.5236   -2.8790    1.1996 O.3     1  LIG1      -0.5600000000000005
     23 P           0.4564   -4.0986    0.1357 P.3     1  LIG1       1.2100000000000009
     24 H          -1.2685    0.5706   -1.5901 H       1  LIG1       0.17000000000000004
     25 H          -1.3761   -0.6168   -2.9087 H       1  LIG1       0.16000000000000003
     26 H          -2.4833   -0.1810    1.3117 H       1  LIG1       0.20999999999999996
     27 H           0.6697   -1.7590   -2.1106 H       1  LIG1       0.19999999999999996
     28 H          -1.9053   -1.8364   -0.7302 H       1  LIG1       0.22999999999999998
     29 H          -1.1776   -1.8058    1.6232 H       1  LIG1       0.22999999999999998
     30 H           1.2012   -0.4102    1.5055 H       1  LIG1       0.21999999999999997
     31 H           2.3172    5.1503   -0.6915 H       1  LIG1          0.27
     32 H           1.7961    1.8351   -0.1326 H       1  LIG1          0.36
     33 H           0.7946    0.2311   -3.4821 H       1  LIG1       0.43000000000000005
     34 H           2.2875   -4.8639   -0.6687 H       1  LIG1           0.49
@<TRIPOS>BOND
     1    33    16    1
     2    16     1    1
     3    25     1    1
     4     1    24    1
     5     1     3    1
     6    27     3    1
     7     3     5    1
     8     3    20    1
     9    21     5    1
    10    21    23    1
    11    28     5    1
    12    31    11    1
    13    34    18    1
    14    18    23    1
    15     5     6    1
    16    20     9    1
    17    11    10    1
    18    32    13    1
    19    10    14   ar
    20    10    13   ar
    21    14     8   ar
    22    23    19    2
    23    23    22    1
    24    13     7   ar
    25     8    17    2
    26     8     4   ar
    27     7     4   ar
    28     7    15   ar
    29     4    12   ar
    30     9    15    1
    31     9     6    1
    32     9    30    1
    33    15     2   ar
    34     6    22    1
    35     6    29    1
    36    12     2   ar
    37     2    26    1
