@<TRIPOS>MOLECULE
UBORTCNDUKBEOP-UUOKFMHZSA-N	6045281	-1058.4462671223664
 32 34 0 0 0
SMALL
MULLIKEN NwChem

@<TRIPOS>ATOM
      1 C5*        -0.1887    4.2052   -1.0106 C.3     1  LIG1       -0.04999999999999982
      2 C           1.1370   -0.1673   -1.2745 C.ar    1  LIG1       0.21999999999999975
      3 C4*        -0.3838    3.1767    0.0971 C.3     1  LIG1       0.1200000000000001
      4 C           0.6073   -2.2184   -1.1183 C.ar    1  LIG1       0.17999999999999972
      5 C3*         0.9020    2.7929    0.8313 C.3     1  LIG1       0.04999999999999982
      6 C2*         0.4994    1.4631    1.4885 C.3     1  LIG1       0.08000000000000007
      7 C          -0.2559   -1.5364   -0.2441 C.ar    1  LIG1       0.5599999999999996
      8 C           0.4212   -3.6075   -1.1430 C.ar    1  LIG1       0.5199999999999996
      9 C1*        -0.4668    0.8698    0.4261 C.3     1  LIG1          0.25
     10 C          -1.2926   -3.3698    0.3819 C.ar    1  LIG1       0.6500000000000004
     11 N           1.4700   -1.3375   -1.7537 N.ar    1  LIG1      -0.5599999999999996
     12 N          -1.2122   -2.0533    0.5320 N.ar    1  LIG1      -0.5800000000000001
     13 N          -0.5291   -4.1699   -0.3965 N.ar    1  LIG1      -0.5999999999999996
     14 N           0.0974   -0.2120   -0.3514 N.ar    1  LIG1      -0.5199999999999996
     15 O5*         0.1680    5.4634   -0.4746 O.3     1  LIG1      -0.6699999999999999
     16 O3*         1.2687    3.8107    1.7626 O.3     1  LIG1      -0.6600000000000001
     17 O2*        -0.2146    1.6991    2.6863 O.3     1  LIG1      -0.6799999999999997
     18 O           1.1954   -4.3968   -1.8974 O.3     1  LIG1      -0.6199999999999992
     19 O          -2.2526   -3.9842    1.0972 O.3     1  LIG1      -0.6199999999999992
     20 O4*        -0.8146    1.9360   -0.4595 O.3     1  LIG1      -0.5399999999999991
     21 H5*1       -1.1222    4.3419   -1.5575 H       1  LIG1       0.17000000000000004
     22 H5*2        0.5567    3.8205   -1.7221 H       1  LIG1          0.14
     23 H           1.5812    0.7753   -1.5667 H       1  LIG1       0.21999999999999997
     24 H4*        -1.1128    3.5609    0.8262 H       1  LIG1       0.16000000000000003
     25 H3*         1.7061    2.6280    0.0966 H       1  LIG1       0.18999999999999995
     26 H2*         1.3496    0.7881    1.6681 H       1  LIG1       0.17000000000000004
     27 H1*        -1.3488    0.4620    0.9320 H       1  LIG1       0.18999999999999995
     28 H5*         0.8444    5.3186    0.2066 H       1  LIG1       0.43000000000000005
     29 H3*         2.1750    3.6310    2.0597 H       1  LIG1       0.44999999999999996
     30 H2*        -0.0214    2.6103    2.9677 H       1  LIG1       0.43000000000000005
     31 H           0.8934   -5.3113   -1.7403 H       1  LIG1       0.45999999999999996
     32 H          -2.1913   -4.9296    0.8758 H       1  LIG1       0.44999999999999996
@<TRIPOS>BOND
     1    18    31    1
     2    18     8    1
     3    11     2   ar
     4    11     4   ar
     5    22     1    1
     6    23     2    1
     7    21     1    1
     8     2    14   ar
     9     8     4   ar
    10     8    13   ar
    11     4     7   ar
    12     1    15    1
    13     1     3    1
    14    15    28    1
    15    20     3    1
    16    20     9    1
    17    13    10   ar
    18    14     7   ar
    19    14     9    1
    20     7    12   ar
    21    25     5    1
    22     3    24    1
    23     3     5    1
    24    10    12   ar
    25    10    19    1
    26     9    27    1
    27     9     6    1
    28     5     6    1
    29     5    16    1
    30    32    19    1
    31     6    26    1
    32     6    17    1
    33    16    29    1
    34    17    30    1
