@<TRIPOS>MOLECULE
UCMIRNVEIXFBKS-UHFFFAOYSA-N	6045282	-323.6711203819843
 13 12 0 0 0
SMALL
MULLIKEN NwChem

@<TRIPOS>ATOM
      1 CB         -0.0213   -0.0783    1.9045 C.3     1  ALA1      -0.4500000000000002
      2 CA          0.5144    0.2948    0.5251 C.3     1  ALA1       -0.04999999999999982
      3 C          -0.1101   -0.5882   -0.5513 C.2     1  ALA1       0.6100000000000003
      4 N           0.2111    1.7006    0.2211 N.3     1  ALA1      -0.7800000000000002
      5 OXT        -0.7773   -1.5795   -0.3650 O.2     1  ALA1      -0.5099999999999998
      6 O           0.2130   -0.1467   -1.7955 O.3     1  ALA1      -0.5899999999999999
      7 HB1         0.1598   -1.1349    2.1175 H       1  ALA1       0.16000000000000003
      8 HB2         0.4716    0.5248    2.6755 H       1  ALA1       0.16000000000000003
      9 HB3        -1.0980    0.1069    1.9499 H       1  ALA1       0.16000000000000003
     10 HA          1.5981    0.0655    0.4883 H       1  ALA1       0.17000000000000004
     11 H1          0.6834    2.2944    0.9009 H       1  ALA1       0.32999999999999996
     12 H2          0.5844    1.9435   -0.6942 H       1  ALA1       0.32999999999999996
     13 H          -0.2179   -0.7559   -2.4238 H       1  ALA1       0.44999999999999996
@<TRIPOS>BOND
     1    13     6    1
     2     6     3    1
     3    12     4    1
     4     3     5    2
     5     3     2    1
     6     4     2    1
     7     4    11    1
     8    10     2    1
     9     2     1    1
    10     1     9    1
    11     1     7    1
    12     1     8    1
