@<TRIPOS>MOLECULE
UCQFCFPECQILOL-UHFFFAOYSA-M	6045283	-800.8190166963444
 19 18 0 0 0
SMALL
MULLIKEN NwChem

@<TRIPOS>ATOM
      1 C          -1.9768    1.9854   -0.3911 C.3     1  LIG1      -0.45999999999999996
      2 C           1.4672   -0.3395    2.2391 C.3     1  LIG1      -0.46999999999999975
      3 C          -2.0399    0.4570   -0.4404 C.3     1  LIG1       -0.040000000000000036
      4 C           2.1957   -0.4681    0.9008 C.3     1  LIG1       -0.040000000000000036
      5 O          -0.0484   -1.2167   -2.1544 O.2     1  LIG1      -0.6899999999999995
      6 O           0.9968    1.0620   -1.3085 O.3     1  LIG1      -0.7200000000000006
      7 O          -0.8546   -0.1381    0.0622 O.3     1  LIG1      -0.5899999999999999
      8 O           1.4147   -1.1710   -0.0553 O.3     1  LIG1      -0.5700000000000003
      9 P           0.4069   -0.3027   -1.0587 P.3     1  LIG1       1.0899999999999999
     10 H          -1.8289    2.3228    0.6425 H       1  LIG1       0.15000000000000002
     11 H          -2.9045    2.4337   -0.7761 H       1  LIG1       0.15000000000000002
     12 H          -1.1237    2.3265   -0.9837 H       1  LIG1       0.16000000000000003
     13 H           1.2000   -1.3316    2.6225 H       1  LIG1       0.15000000000000002
     14 H           2.0995    0.1663    2.9834 H       1  LIG1       0.15000000000000002
     15 H           0.5429    0.2271    2.1006 H       1  LIG1       0.16000000000000003
     16 H          -2.8714    0.0917    0.1821 H       1  LIG1       0.15000000000000002
     17 H          -2.2255    0.1131   -1.4684 H       1  LIG1          0.14
     18 H           3.1257   -1.0420    1.0343 H       1  LIG1          0.14
     19 H           2.4583    0.5234    0.5120 H       1  LIG1           0.14
@<TRIPOS>BOND
     1     5     9    2
     2    17     3    1
     3     6     9    1
     4     9     8    1
     5     9     7    1
     6    12     1    1
     7    11     1    1
     8     3     1    1
     9     3     7    1
    10     3    16    1
    11     1    10    1
    12     8     4    1
    13    19     4    1
    14     4    18    1
    15     4     2    1
    16    15     2    1
    17     2    13    1
    18     2    14    1
