@<TRIPOS>MOLECULE
UCTLRSWJYQTBFZ-DDPQNLDTSA-N	6045284	-1130.0140834419963
 72 75 0 0 0
SMALL
MULLIKEN NwChem

@<TRIPOS>ATOM
      1 C           4.8256    0.3425   -4.5596 C.3     1  LIG1      -0.45999999999999996
      2 C           3.2940    1.5944   -6.1292 C.3     1  LIG1      -0.45999999999999996
      3 C          -0.3843   -0.1527   -2.0727 C.3     1  LIG1      -0.4800000000000004
      4 C          -0.7382   -2.5820    2.9460 C.3     1  LIG1      -0.5099999999999998
      5 C           2.4292    2.7520    0.8369 C.3     1  LIG1      -0.4900000000000002
      6 C           2.3152   -1.1008   -3.4302 C.3     1  LIG1      -0.28000000000000025
      7 C           2.3587   -0.2908   -4.7376 C.3     1  LIG1      -0.2599999999999998
      8 C           2.1536   -0.2768   -2.1376 C.3     1  LIG1      -0.28000000000000025
      9 C          -2.8418   -0.4812    0.6875 C.2     1  LIG1      -0.23000000000000043
     10 C          -2.0659    0.7491    0.5889 C.2     1  LIG1      -0.20999999999999996
     11 C          -0.0694    2.8727   -1.1849 C.3     1  LIG1      -0.2999999999999998
     12 C          -0.4935    3.2659    0.2481 C.3     1  LIG1      -0.2999999999999998
     13 C          -3.6793   -1.0361    3.9252 C.3     1  LIG1      -0.2999999999999998
     14 C           0.8339   -0.7551    1.3119 C.3     1  LIG1      -0.28000000000000025
     15 C          -2.1667   -0.7126    3.8815 C.3     1  LIG1      -0.28000000000000025
     16 C           1.8641    0.3579    1.0765 C.3     1  LIG1      -0.29000000000000004
     17 C          -3.5215   -2.5594    1.8869 C.3     1  LIG1      -0.3600000000000003
     18 C           3.3948    0.8487   -4.7909 C.3     1  LIG1      -0.07000000000000028
     19 C           0.9230    0.6560   -2.0887 C.3     1  LIG1      -0.08000000000000007
     20 C          -2.5525   -1.4482    1.5771 C.2     1  LIG1      0.13999999999999968
     21 C          -4.0643   -2.4045    3.3423 C.3     1  LIG1       0.13999999999999968
     22 C          -0.9290    0.9328    1.2824 C.2     1  LIG1      0.13999999999999968
     23 C           1.0975    1.8367   -1.0736 C.3     1  LIG1      -0.11000000000000032
     24 C          -0.0071    2.1213    1.1507 C.3     1  LIG1      -0.16000000000000014
     25 C          -0.3682   -0.2034    2.1204 C.3     1  LIG1      -0.1900000000000004
     26 C          -1.4341   -1.2478    2.5920 C.3     1  LIG1      0.07000000000000028
     27 C           1.3507    1.6928    0.4893 C.3     1  LIG1      0.11000000000000032
     28 O          -3.5479   -3.4939    4.1185 O.3     1  LIG1      -0.6699999999999999
     29 H           5.0978   -0.4085   -5.3131 H       1  LIG1          0.14
     30 H           4.9431   -0.1177   -3.5727 H       1  LIG1       0.15000000000000002
     31 H           5.5490    1.1634   -4.6310 H       1  LIG1          0.14
     32 H           3.5255    0.9230   -6.9667 H       1  LIG1          0.14
     33 H           2.2842    1.9910   -6.2899 H       1  LIG1          0.14
     34 H           3.9975    2.4345   -6.1726 H       1  LIG1          0.14
     35 H          -0.4912   -0.7816   -1.1880 H       1  LIG1       0.16000000000000003
     36 H          -1.2673    0.4899   -2.1143 H       1  LIG1       0.15000000000000002
     37 H          -0.4244   -0.8049   -2.9525 H       1  LIG1          0.14
     38 H           0.1145   -2.3928    3.6093 H       1  LIG1          0.14
     39 H          -1.4210   -3.2530    3.4685 H       1  LIG1       0.16000000000000003
     40 H          -0.3663   -3.0946    2.0525 H       1  LIG1          0.14
     41 H           3.4054    2.4393    0.4458 H       1  LIG1       0.15000000000000002
     42 H           2.2046    3.7333    0.4064 H       1  LIG1       0.15000000000000002
     43 H           2.5270    2.8762    1.9222 H       1  LIG1          0.14
     44 H           1.5017   -1.8338   -3.5053 H       1  LIG1          0.13
     45 H           3.2347   -1.6936   -3.3387 H       1  LIG1          0.13
     46 H           1.3648    0.1328   -4.9375 H       1  LIG1          0.13
     47 H           2.5598   -0.9828   -5.5690 H       1  LIG1          0.12
     48 H           2.1127   -0.9814   -1.2997 H       1  LIG1          0.14
     49 H           3.0612    0.3233   -1.9852 H       1  LIG1          0.13
     50 H          -3.7211   -0.5792    0.0523 H       1  LIG1          0.13
     51 H          -2.4313    1.5149   -0.0885 H       1  LIG1          0.13
     52 H           0.2325    3.7496   -1.7681 H       1  LIG1          0.13
     53 H          -0.9163    2.4324   -1.7173 H       1  LIG1       0.15000000000000002
     54 H          -1.5692    3.4489    0.3380 H       1  LIG1          0.14
     55 H           0.0021    4.1930    0.5542 H       1  LIG1          0.14
     56 H          -4.2235   -0.2786    3.3482 H       1  LIG1       0.15000000000000002
     57 H          -4.0504   -0.9573    4.9572 H       1  LIG1          0.14
     58 H           0.4777   -1.1847    0.3724 H       1  LIG1       0.15000000000000002
     59 H           1.3322   -1.5628    1.8570 H       1  LIG1          0.14
     60 H          -1.6626   -1.1234    4.7647 H       1  LIG1          0.14
     61 H          -2.0584    0.3766    3.9353 H       1  LIG1          0.14
     62 H           2.7036   -0.0118    0.4799 H       1  LIG1          0.14
     63 H           2.2912    0.5954    2.0625 H       1  LIG1          0.13
     64 H          -4.3544   -2.5332    1.1762 H       1  LIG1       0.15000000000000002
     65 H          -3.0638   -3.5526    1.8116 H       1  LIG1       0.16000000000000003
     66 H           3.1567    1.5667   -3.9919 H       1  LIG1          0.13
     67 H           0.9086    1.1990   -3.0463 H       1  LIG1          0.13
     68 H          -5.1634   -2.4774    3.3210 H       1  LIG1          0.13
     69 H           2.0063    2.3203   -1.4547 H       1  LIG1          0.13
     70 H           0.1995    2.4887    2.1681 H       1  LIG1          0.12
     71 H           0.0658    0.2227    3.0404 H       1  LIG1          0.13
     72 H          -3.8033   -3.3432    5.0422 H       1  LIG1       0.42000000000000004
@<TRIPOS>BOND
     1    32     2    1
     2    33     2    1
     3    34     2    1
     4     2    18    1
     5    47     7    1
     6    29     1    1
     7    46     7    1
     8    18     7    1
     9    18     1    1
    10    18    66    1
    11     7     6    1
    12    31     1    1
    13     1    30    1
    14    44     6    1
    15     6    45    1
    16     6     8    1
    17    67    19    1
    18    37     3    1
    19     8    19    1
    20     8    49    1
    21     8    48    1
    22    36     3    1
    23    19     3    1
    24    19    23    1
    25     3    35    1
    26    52    11    1
    27    53    11    1
    28    69    23    1
    29    11    23    1
    30    11    12    1
    31    23    27    1
    32    51    10    1
    33    50     9    1
    34    12    54    1
    35    12    55    1
    36    12    24    1
    37    58    14    1
    38    42     5    1
    39    41     5    1
    40    62    16    1
    41    27     5    1
    42    27    16    1
    43    27    24    1
    44    10     9    1
    45    10    22    2
    46     9    20    2
    47     5    43    1
    48    16    14    1
    49    16    63    1
    50    24    22    1
    51    24    70    1
    52    64    17    1
    53    22    25    1
    54    14    59    1
    55    14    25    1
    56    20    17    1
    57    20    26    1
    58    65    17    1
    59    17    21    1
    60    40     4    1
    61    25    26    1
    62    25    71    1
    63    26     4    1
    64    26    15    1
    65     4    39    1
    66     4    38    1
    67    68    21    1
    68    21    13    1
    69    21    28    1
    70    56    13    1
    71    15    13    1
    72    15    61    1
    73    15    60    1
    74    13    57    1
    75    28    72    1
