@<TRIPOS>MOLECULE
UCTWMZQNUQWSLP-VIFPVBQESA-O	6045285	-631.471162938202
 27 27 0 0 0
SMALL
MULLIKEN NwChem

@<TRIPOS>ATOM
      1 C           2.7705    0.5350    2.3935 C.3     1  LIG1      -0.34999999999999964
      2 C          -0.1636   -1.0313    0.6560 C.ar    1  LIG1      -0.2400000000000002
      3 C          -1.5507   -1.0026    0.8567 C.ar    1  LIG1      -0.20000000000000018
      4 C          -0.4380    0.3272   -1.3285 C.ar    1  LIG1      -0.2400000000000002
      5 C           2.4735    1.0160   -0.0919 C.3     1  LIG1      -0.16999999999999993
      6 C           0.4004   -0.3682   -0.4386 C.ar    1  LIG1      0.05999999999999961
      7 C          -2.3851   -0.3240   -0.0285 C.ar    1  LIG1       0.3099999999999996
      8 C          -1.8169    0.3457   -1.1461 C.ar    1  LIG1       0.3099999999999996
      9 C           1.9041   -0.3157   -0.6282 C.3     1  LIG1       0.07000000000000028
     10 N           2.0047    1.2665    1.3252 N.4     1  LIG1       -0.5999999999999996
     11 O          -3.7292   -0.2555    0.0881 O.3     1  LIG1      -0.6699999999999999
     12 O          -2.6851    0.9764   -1.9685 O.3     1  LIG1      -0.6699999999999999
     13 O           2.3246   -0.2888   -1.9772 O.3     1  LIG1      -0.6600000000000001
     14 H           2.6872   -0.5353    2.2080 H       1  LIG1       0.22999999999999998
     15 H           2.3405    0.7823    3.3654 H       1  LIG1       0.22999999999999998
     16 H           3.8146    0.8462    2.3481 H       1  LIG1       0.22999999999999998
     17 H           0.4581   -1.6227    1.3254 H       1  LIG1       0.17000000000000004
     18 H          -1.9888   -1.5363    1.6967 H       1  LIG1       0.17000000000000004
     19 H          -0.0011    0.8252   -2.1911 H       1  LIG1       0.17000000000000004
     20 H           2.0914    1.8312   -0.7101 H       1  LIG1       0.21999999999999997
     21 H           3.5649    1.0301   -0.1011 H       1  LIG1       0.21999999999999997
     22 H           2.3681   -1.1536   -0.0825 H       1  LIG1       0.18000000000000005
     23 H           1.0108    0.9680    1.3566 H       1  LIG1      0.42000000000000004
     24 H           2.0256    2.2720    1.5223 H       1  LIG1      0.44999999999999996
     25 H          -4.0279   -0.7757    0.8513 H       1  LIG1       0.45999999999999996
     26 H          -2.2133    1.3560   -2.7270 H       1  LIG1       0.45999999999999996
     27 H           2.0218   -1.1024   -2.4125 H       1  LIG1       0.43999999999999995
@<TRIPOS>BOND
     1    26    12    1
     2    27    13    1
     3    19     4    1
     4    13     9    1
     5    12     8    1
     6     4     8   ar
     7     4     6   ar
     8     8     7   ar
     9    20     5    1
    10     9     6    1
    11     9     5    1
    12     9    22    1
    13     6     2   ar
    14    21     5    1
    15     5    10    1
    16     7    11    1
    17     7     3   ar
    18    11    25    1
    19     2     3   ar
    20     2    17    1
    21     3    18    1
    22    10    23    1
    23    10    24    1
    24    10     1    1
    25    14     1    1
    26    16     1    1
    27     1    15    1
