@<TRIPOS>MOLECULE
UDMBCSSLTHHNCD-KQYNXXCUSA-L	11083983	-1530.1334497751984
 35 37 0 0 0
SMALL
MULLIKEN NwChem

@<TRIPOS>ATOM
      1 C           2.0444    1.4874    0.6126 C.3     1  LIG1       -0.04999999999999982
      2 C          -4.9343   -0.1117    1.2919 C.ar    1  LIG1       0.15000000000000036
      3 C          -1.1255    0.2327   -0.7974 C.ar    1  LIG1       0.1900000000000004
      4 C           1.6272    0.2448    1.4070 C.3     1  LIG1       0.1200000000000001
      5 C          -3.2512    0.3457   -0.7133 C.ar    1  LIG1       0.1900000000000004
      6 C           1.5773   -1.1111    0.6295 C.3     1  LIG1       0.08999999999999986
      7 C           0.2859   -1.7611    1.2408 C.3     1  LIG1       0.11000000000000032
      8 C          -4.6278    0.5328   -0.8917 C.ar    1  LIG1       0.4400000000000004
      9 C          -2.8377   -0.0858    0.5594 C.ar    1  LIG1       0.5300000000000002
     10 C          -0.5683   -0.5519    1.6207 C.3     1  LIG1       0.21999999999999975
     11 N          -5.1456    0.9214   -2.1142 N.pl3   1  LIG1      -0.7800000000000002
     12 N          -5.4744    0.3079    0.1286 N.ar    1  LIG1        -0.54
     13 N          -3.6569   -0.3357    1.5983 N.ar    1  LIG1        -0.54
     14 N          -2.1713    0.5433   -1.5462 N.ar    1  LIG1      -0.5800000000000001
     15 N          -1.4697   -0.1625    0.4902 N.ar    1  LIG1      -0.5199999999999996
     16 O           2.6609   -1.9079    0.8648 O.3     1  LIG1      -0.8000000000000007
     17 O           0.7181   -2.4815    2.3696 O.3     1  LIG1      -0.7200000000000006
     18 O           4.0056   -0.7946   -1.2080 O.3     1  LIG1      -0.7799999999999994
     19 O           4.4111    1.4543   -2.3352 O.2     1  LIG1      -0.6899999999999995
     20 O           1.9467    0.5764   -2.0639 O.3     1  LIG1      -0.7200000000000006
     21 O           3.3043    1.3463   -0.0036 O.3     1  LIG1      -0.6199999999999992
     22 O           0.2873    0.5078    1.9421 O.3     1  LIG1      -0.5299999999999994
     23 P           3.3839    0.6709   -1.5682 P.3     1  LIG1       1.0899999999999999
     24 H           2.1051    2.3419    1.3081 H       1  LIG1          0.14
     25 H           1.2667    1.7168   -0.1248 H       1  LIG1          0.14
     26 H          -5.6516   -0.2868    2.0943 H       1  LIG1       0.16000000000000003
     27 H          -0.0911    0.2858   -1.1425 H       1  LIG1       0.22999999999999998
     28 H           2.3015    0.0879    2.2578 H       1  LIG1          0.12
     29 H           1.4054   -0.9080   -0.4369 H       1  LIG1          0.12
     30 H          -0.2548   -2.4068    0.5265 H       1  LIG1          0.12
     31 H          -1.2468   -0.7441    2.4568 H       1  LIG1       0.17000000000000004
     32 H          -6.0383    1.3940   -2.0530 H       1  LIG1          0.37
     33 H          -4.4658    1.3648   -2.7206 H       1  LIG1          0.37
     34 H           3.5679   -1.2380   -0.4128 H       1  LIG1       0.43000000000000005
     35 H           1.7035   -2.5387    2.1077 H       1  LIG1           0.39
@<TRIPOS>BOND
     1    33    11    1
     2    19    23    2
     3    11    32    1
     4    11     8    1
     5    20    23    1
     6    23    18    1
     7    23    21    1
     8    14     3   ar
     9    14     5   ar
    10    18    34    1
    11    27     3    1
    12     8     5   ar
    13     8    12   ar
    14     3    15   ar
    15     5     9   ar
    16    29     6    1
    17    25     1    1
    18    21     1    1
    19    12     2   ar
    20    15     9   ar
    21    15    10    1
    22    30     7    1
    23     9    13   ar
    24     1    24    1
    25     1     4    1
    26     6    16    1
    27     6     7    1
    28     6     4    1
    29     7    10    1
    30     7    17    1
    31     2    13   ar
    32     2    26    1
    33     4    22    1
    34     4    28    1
    35    10    22    1
    36    10    31    1
    37    35    17    1
