@<TRIPOS>MOLECULE
UELBXEKQONEDKM-IRXDYDNUSA-K	11083982	-1574.3923591534317
 60 59 0 0 0
SMALL
MULLIKEN NwChem

@<TRIPOS>ATOM
      1 C          -8.0384   -1.4121   -1.8688 C.3     1  LIG1      -0.45999999999999996
      2 C          -7.3118   -0.0917   -1.5884 C.3     1  LIG1      -0.2599999999999998
      3 C          -6.7688    0.0007   -0.1547 C.3     1  LIG1        -0.25
      4 C          -5.9578    1.2837    0.1440 C.3     1  LIG1      -0.2699999999999996
      5 C          -4.4317    1.1268    0.0319 C.3     1  LIG1      -0.2999999999999998
      6 C           4.0894    0.2919   -0.2502 C.3     1  LIG1      -0.2599999999999998
      7 C          -3.9234    0.7997   -1.3807 C.3     1  LIG1      -0.2599999999999998
      8 C           3.1299   -0.2588    0.8271 C.3     1  LIG1      -0.2699999999999996
      9 C           4.9844   -0.7642   -0.9237 C.3     1  LIG1      -0.2599999999999998
     10 C          -2.4012    0.5643   -1.5000 C.3     1  LIG1      -0.28000000000000025
     11 C           1.9017   -1.0270    0.2981 C.3     1  LIG1      -0.2699999999999996
     12 C           6.0437   -0.1861   -1.8783 C.3     1  LIG1      -0.2400000000000002
     13 C          -1.5222    1.6883   -0.9042 C.3     1  LIG1      -0.28000000000000025
     14 C           0.7463   -0.1227   -0.1778 C.3     1  LIG1      -0.29000000000000004
     15 C           6.9560   -1.2340   -2.5269 C.3     1  LIG1       -0.3600000000000003
     16 C          -1.2665    1.4241    0.5871 C.3     1  LIG1       0.07000000000000028
     17 C          -0.1155    0.4148    0.9849 C.3     1  LIG1       0.16999999999999993
     18 C           8.1894   -0.6638   -3.3277 C.2     1  LIG1       0.5099999999999998
     19 O          -1.1218    2.6539    1.2934 O.3     1  LIG1      -0.7599999999999998
     20 O           8.6327   -1.4206   -4.2324 O.co2   1  LIG1      -0.6999999999999993
     21 O           8.6239    0.4579   -2.9528 O.co2   1  LIG1      -0.6799999999999997
     22 O          -1.3361   -1.4261    4.0638 O.3     1  LIG1        -0.75
     23 O          -3.1209   -0.4742    2.4204 O.2     1  LIG1        -0.75
     24 O          -1.3242    1.1060    3.4367 O.3     1  LIG1      -0.8000000000000007
     25 O          -0.6357   -0.6919    1.6780 O.3     1  LIG1      -0.6799999999999997
     26 P          -1.7214   -0.3524    3.0591 P.3     1  LIG1       0.9700000000000006
     27 H          -7.3602   -2.2632   -1.7290 H       1  LIG1          0.14
     28 H          -8.8831   -1.5522   -1.1797 H       1  LIG1          0.14
     29 H          -8.4307   -1.4594   -2.8944 H       1  LIG1          0.14
     30 H          -6.4889    0.0318   -2.3020 H       1  LIG1          0.14
     31 H          -7.9987    0.7506   -1.7688 H       1  LIG1          0.13
     32 H          -7.6264   -0.0766    0.5329 H       1  LIG1          0.13
     33 H          -6.1346   -0.8708    0.0573 H       1  LIG1          0.13
     34 H          -6.1741    1.6022    1.1720 H       1  LIG1          0.12
     35 H          -6.3200    2.0969   -0.5122 H       1  LIG1          0.12
     36 H          -4.0878    0.3755    0.7650 H       1  LIG1       0.17000000000000004
     37 H          -3.9699    2.0644    0.3667 H       1  LIG1          0.12
     38 H           3.5125    0.8250   -1.0206 H       1  LIG1          0.13
     39 H           4.7456    1.0489    0.2079 H       1  LIG1          0.12
     40 H          -4.2188    1.6132   -2.0707 H       1  LIG1          0.12
     41 H          -4.4266   -0.1076   -1.7519 H       1  LIG1          0.13
     42 H           2.7698    0.5689    1.4517 H       1  LIG1          0.13
     43 H           3.7110   -0.9111    1.4984 H       1  LIG1          0.13
     44 H           4.3573   -1.4893   -1.4635 H       1  LIG1          0.13
     45 H           5.4961   -1.3441   -0.1373 H       1  LIG1          0.12
     46 H          -2.1663    0.4063   -2.5659 H       1  LIG1          0.12
     47 H          -2.1586   -0.3710   -0.9809 H       1  LIG1          0.13
     48 H           2.2220   -1.6947   -0.5173 H       1  LIG1          0.13
     49 H           1.4901   -1.6591    1.0922 H       1  LIG1          0.13
     50 H           5.5431    0.3984   -2.6662 H       1  LIG1          0.12
     51 H           6.6868    0.5284   -1.3488 H       1  LIG1       0.10999999999999999
     52 H          -0.5915    1.7915   -1.4786 H       1  LIG1          0.13
     53 H          -2.0418    2.6548   -0.9872 H       1  LIG1          0.12
     54 H           1.1495    0.7172   -0.7651 H       1  LIG1          0.14
     55 H           0.1025   -0.7008   -0.8548 H       1  LIG1          0.13
     56 H           7.3636   -1.8872   -1.7349 H       1  LIG1          0.13
     57 H           6.3841   -1.8971   -3.1917 H       1  LIG1       0.10999999999999999
     58 H          -2.1568    0.9186    0.9611 H       1  LIG1       0.17000000000000004
     59 H           0.5424    1.0120    1.6421 H       1  LIG1       0.08999999999999997
     60 H          -1.2088    2.2832    2.2354 H       1  LIG1       0.42000000000000004
@<TRIPOS>BOND
     1    20    18   ar
     2    18    21   ar
     3    18    15    1
     4    57    15    1
     5    29     1    1
     6    50    12    1
     7    46    10    1
     8    15    12    1
     9    15    56    1
    10    30     2    1
    11    40     7    1
    12    12    51    1
    13    12     9    1
    14     1    27    1
    15     1     2    1
    16     1    28    1
    17    31     2    1
    18    41     7    1
    19     2     3    1
    20    10     7    1
    21    10    47    1
    22    10    13    1
    23    52    13    1
    24    44     9    1
    25     7     5    1
    26    38     6    1
    27    53    13    1
    28     9     6    1
    29     9    45    1
    30    13    16    1
    31    55    14    1
    32    54    14    1
    33    48    11    1
    34    35     4    1
    35     6    39    1
    36     6     8    1
    37    14    11    1
    38    14    17    1
    39     3    33    1
    40     3     4    1
    41     3    32    1
    42     5     4    1
    43     5    37    1
    44     5    36    1
    45     4    34    1
    46    11     8    1
    47    11    49    1
    48    16    58    1
    49    16    17    1
    50    16    19    1
    51     8    42    1
    52     8    43    1
    53    17    59    1
    54    17    25    1
    55    19    60    1
    56    25    26    1
    57    23    26    2
    58    26    24    1
    59    26    22    1
