@<TRIPOS>MOLECULE
UFAHZIUFPNSHSL-MRVPVSSYSA-N	6045288	-747.9071331706166
 34 34 0 0 0
SMALL
MULLIKEN NwChem

@<TRIPOS>ATOM
      1 C          -1.4397   -1.0735   -2.9173 C.3     1  LIG1      -0.46999999999999975
      2 C          -1.2049    1.9027   -1.1452 C.3     1  LIG1      -0.33000000000000007
      3 C          -1.1788    3.5274    0.6867 C.3     1  LIG1      -0.33000000000000007
      4 C           0.8782    3.0726   -0.5701 C.3     1  LIG1      -0.33000000000000007
      5 C          -0.5830   -1.9115   -1.9687 C.3     1  LIG1       -0.2999999999999998
      6 C           0.9964   -0.7562    1.7176 C.3     1  LIG1       -0.41999999999999993
      7 C          -0.0435    1.3854    1.0273 C.3     1  LIG1      -0.16000000000000014
      8 C           0.9545    0.2999    0.5806 C.3     1  LIG1       0.13999999999999968
      9 C           1.1114   -2.1897    1.1920 C.2     1  LIG1       0.5999999999999996
     10 C          -0.4450   -1.3005   -0.5685 C.3     1  LIG1          0.71
     11 N          -0.3747    2.4689   -0.0095 N.4     1  LIG1       -0.3700000000000001
     12 O           1.8166   -3.0081    1.7542 O.2     1  LIG1      -0.5700000000000003
     13 O           0.3638   -2.4779    0.1447 O.3     1  LIG1      -0.5299999999999994
     14 O          -1.4629   -0.9141    0.0640 O.3     1  LIG1      -0.6799999999999997
     15 O           0.6595   -0.2504   -0.6784 O.3     1  LIG1      -0.5800000000000001
     16 H          -2.3730   -0.7864   -2.4208 H       1  LIG1       0.15000000000000002
     17 H          -1.6906   -1.6377   -3.8226 H       1  LIG1       0.15000000000000002
     18 H          -0.9224   -0.1622   -3.2425 H       1  LIG1       0.15000000000000002
     19 H          -1.9517    1.2260   -0.7295 H       1  LIG1       0.20999999999999996
     20 H          -1.6423    2.7404   -1.6933 H       1  LIG1       0.19999999999999996
     21 H          -0.5476    1.3067   -1.7672 H       1  LIG1       0.21999999999999997
     22 H          -0.5897    3.9524    1.5013 H       1  LIG1       0.21999999999999997
     23 H          -1.4422    4.3083   -0.0297 H       1  LIG1       0.21999999999999997
     24 H          -2.0842    3.0660    1.0837 H       1  LIG1       0.21999999999999997
     25 H           1.4864    3.4609    0.2497 H       1  LIG1       0.21999999999999997
     26 H           1.4199    2.2970   -1.1098 H       1  LIG1       0.21999999999999997
     27 H           0.6043    3.8818   -1.2507 H       1  LIG1       0.21999999999999997
     28 H          -1.0586   -2.8850   -1.8115 H       1  LIG1          0.14
     29 H           0.4115   -2.0994   -2.3840 H       1  LIG1          0.13
     30 H           1.8266   -0.5764    2.4038 H       1  LIG1       0.17000000000000004
     31 H           0.0616   -0.7332    2.2886 H       1  LIG1       0.18999999999999995
     32 H          -0.9914    0.9007    1.2544 H       1  LIG1       0.20999999999999996
     33 H           0.3509    1.9202    1.8986 H       1  LIG1       0.19999999999999996
     34 H           1.9541    0.7440    0.4851 H       1  LIG1       0.17000000000000004
@<TRIPOS>BOND
     1    17     1    1
     2    18     1    1
     3     1    16    1
     4     1     5    1
     5    29     5    1
     6     5    28    1
     7     5    10    1
     8    21     2    1
     9    20     2    1
    10    27     4    1
    11     2    19    1
    12     2    11    1
    13    26     4    1
    14    15    10    1
    15    15     8    1
    16     4    11    1
    17     4    25    1
    18    10    14    1
    19    10    13    1
    20    23     3    1
    21    11     3    1
    22    11     7    1
    23    13     9    1
    24    34     8    1
    25     8     7    1
    26     8     6    1
    27     3    24    1
    28     3    22    1
    29     7    32    1
    30     7    33    1
    31     9     6    1
    32     9    12    2
    33     6    31    1
    34     6    30    1
