@<TRIPOS>MOLECULE
UFIVEPVSAGBUSI-REOHCLBHSA-M	6045289	-604.019836881433
 16 16 0 0 0
SMALL
MULLIKEN NwChem

@<TRIPOS>ATOM
      1 C           0.8471   -1.0170   -0.1770 C.3     1  LIG1       -0.3700000000000001
      2 CA         -0.6128   -0.5594   -0.1806 C.3     1  LIG1       -0.03000000000000025
      3 C           1.6829   -0.1081   -1.1074 C.2     1  LIG1       0.5099999999999998
      4 C          -1.4181   -1.2378    0.9173 C.2     1  LIG1       0.5899999999999999
      5 C           0.2567    1.5633   -0.4470 C.2     1  LIG1       0.5999999999999996
      6 N          -0.7473    0.8763    0.0455 N.pl3   1  LIG1      -0.5999999999999996
      7 N           1.3632    1.2128   -1.1263 N.am    1  LIG1      -0.6299999999999999
      8 O           2.6201   -0.6064   -1.7442 O.2     1  LIG1      -0.6400000000000006
      9 OXT        -1.0043   -1.6650    1.9766 O.2     1  LIG1      -0.5199999999999996
     10 O          -2.7461   -1.3151    0.6068 O.3     1  LIG1      -0.5999999999999996
     11 O           0.1363    2.9270   -0.2771 O.2     1  LIG1      -0.6600000000000001
     12 H           1.2339   -0.9344    0.8476 H       1  LIG1       0.16000000000000003
     13 H           0.9616   -2.0575   -0.4967 H       1  LIG1       0.15000000000000002
     14 HA         -1.0798   -0.8390   -1.1442 H       1  LIG1       0.15000000000000002
     15 H          -3.1621   -1.7032    1.3991 H       1  LIG1       0.43999999999999995
     16 H          -0.7212    3.0042    0.1777 H       1  LIG1       0.42000000000000004
@<TRIPOS>BOND
     1     8     3    2
     2    14     2    1
     3     7     3    1
     4     7     5    2
     5     3     1    1
     6    13     1    1
     7     5    11    1
     8     5     6    1
     9    11    16    1
    10     2     1    1
    11     2     6    1
    12     2     4    1
    13     1    12    1
    14    10     4    1
    15    10    15    1
    16     4     9    2
