@<TRIPOS>MOLECULE
UFJPAQSLHAGEBL-RRKCRQDMSA-J	11083980	-2609.2845387601214
 41 42 0 0 0
SMALL
MULLIKEN NwChem

@<TRIPOS>ATOM
      1 C          -6.2504   -2.6247    2.6487 C.3     1  LIG1       -0.3200000000000003
      2 C          -6.2215   -0.3915    5.6017 C.3     1  LIG1       -0.11000000000000032
      3 C         -10.9474   -3.3748    0.1110 C.ar    1  LIG1       0.1299999999999999
      4 C          -7.8389   -0.4214    0.8489 C.ar    1  LIG1       0.1900000000000004
      5 C          -5.6961   -2.4815    4.0798 C.3     1  LIG1       0.07000000000000028
      6 C          -6.7552   -1.5674    4.7747 C.3     1  LIG1       0.13999999999999968
      7 C          -7.6887   -2.0886    2.7510 C.3     1  LIG1       0.28000000000000025
      8 C          -9.4550   -1.2206   -0.3100 C.ar    1  LIG1       0.09999999999999964
      9 C          -9.3020   -2.0759    0.7859 C.ar    1  LIG1       0.4900000000000002
     10 C         -10.4944   -1.5194   -1.2872 C.ar    1  LIG1       0.45999999999999996
     11 N         -10.0169   -3.1873    1.0649 N.ar    1  LIG1      -0.5800000000000001
     12 N         -11.2346   -2.6771   -0.9839 N.ar    1  LIG1      -0.5700000000000003
     13 N          -8.5248   -0.1833   -0.2453 N.ar    1  LIG1      -0.5899999999999999
     14 N          -8.2515   -1.5525    1.5291 N.ar    1  LIG1      -0.5099999999999998
     15 O          -5.6067   -3.7498    4.7094 O.3     1  LIG1      -0.7300000000000004
     16 O         -10.7390   -0.8441   -2.3054 O.2     1  LIG1      -0.6699999999999999
     17 O          51.1488   13.5730  -32.5559 O.2     2  LIG2      -0.6500000000000004
     18 O          52.4049   11.3910  -31.8766 O.3     2  LIG2      -0.6500000000000004
     19 O          53.1100   13.6775  -30.8404 O.3     2  LIG2      -0.6500000000000004
     20 O          -4.9073   -1.4111    9.0959 O.3     1  LIG1      -0.6600000000000001
     21 O          -4.4042   -2.7048    6.8681 O.2     1  LIG1        -0.75
     22 O          -1.8881   -1.9446    6.1982 O.3     1  LIG1      -0.7599999999999998
     23 O          -3.1169   -0.2773    4.6283 O.2     1  LIG1      -0.6899999999999995
     24 O          -6.1028   -0.7384    6.9829 O.3     1  LIG1      -0.5800000000000001
     25 O          -7.6047   -1.0528    3.7225 O.3     1  LIG1      -0.5500000000000007
     26 O          -1.2975    0.5518    6.3374 O.3     1  LIG1      -0.6799999999999997
     27 O          -3.5809   -0.2960    7.1827 O.3     1  LIG1      -0.6799999999999997
     28 P          52.2209   12.8805  -31.7574 P.3     2  LIG2       0.9399999999999995
     29 P          -4.7107   -1.3932    7.6114 P.3     1  LIG1       1.1500000000000004
     30 P          -2.3974   -0.3966    5.9544 P.3     1  LIG1       1.0700000000000003
     31 H          -5.6902   -1.9983    1.9461 H       1  LIG1       0.17000000000000004
     32 H          -6.2123   -3.6625    2.3055 H       1  LIG1       0.17000000000000004
     33 H          -6.9657    0.4153    5.5506 H       1  LIG1       0.16000000000000003
     34 H          -5.2685   -0.0276    5.2003 H       1  LIG1       0.18999999999999995
     35 H         -11.5749   -4.2621    0.2719 H       1  LIG1          0.12
     36 H          -7.0391    0.1901    1.2460 H       1  LIG1       0.18999999999999995
     37 H          -4.7219   -1.9770    4.0824 H       1  LIG1       0.16000000000000003
     38 H          -7.3573   -2.2121    5.4342 H       1  LIG1          0.14
     39 H          -8.3770   -2.8806    3.0788 H       1  LIG1       0.16000000000000003
     40 H          -5.1799   -3.5309    5.5800 H       1  LIG1       0.43999999999999995
     41 H          -2.7171   -2.4713    6.3401 H       1  LIG1       0.44999999999999996
@<TRIPOS>BOND
     1    17    28    2
     2    18    28    1
     3    28    19    1
     4    16    10    2
     5    10    12   ar
     6    10     8   ar
     7    12     3   ar
     8     8    13   ar
     9     8     9   ar
    10    13     4   ar
    11     3    35    1
    12     3    11   ar
    13     9    11   ar
    14     9    14   ar
    15     4    36    1
    16     4    14   ar
    17    14     7    1
    18    31     1    1
    19    32     1    1
    20     1     7    1
    21     1     5    1
    22     7    39    1
    23     7    25    1
    24    25     6    1
    25     5    37    1
    26     5    15    1
    27     5     6    1
    28    23    30    2
    29    15    40    1
    30     6    38    1
    31     6     2    1
    32    34     2    1
    33    33     2    1
    34     2    24    1
    35    30    22    1
    36    30    26    1
    37    30    27    1
    38    22    41    1
    39    21    29    2
    40    24    29    1
    41    27    29    1
    42    29    20    1
