@<TRIPOS>MOLECULE
UFMHYBVQZSPWSS-VQTJNVASSA-O	6045291	-993.1592976176053
 67 66 0 0 0
SMALL
MULLIKEN NwChem

@<TRIPOS>ATOM
      1 C           7.0105   -2.8142    4.4604 C.3     1  LIG1      -0.45999999999999996
      2 C           5.4956   -3.0375    4.5288 C.3     1  LIG1      -0.2599999999999998
      3 C           4.7071   -1.8087    5.0105 C.3     1  LIG1      -0.2599999999999998
      4 C           4.8738   -0.5430    4.1498 C.3     1  LIG1      -0.2699999999999996
      5 C           4.5483   -0.7230    2.6565 C.3     1  LIG1      -0.2699999999999996
      6 C           3.1390   -1.2609    2.3558 C.3     1  LIG1      -0.2699999999999996
      7 C           1.9840   -0.4081    2.9093 C.3     1  LIG1      -0.2699999999999996
      8 C           1.9784    1.0608    2.4481 C.3     1  LIG1      -0.2699999999999996
      9 C           2.0072    1.2721    0.9249 C.3     1  LIG1      -0.2699999999999996
     10 C           0.8670    0.5877    0.1495 C.3     1  LIG1      -0.2699999999999996
     11 C          -0.5484    0.9972    0.5928 C.3     1  LIG1      -0.2699999999999996
     12 C          -0.8600    2.5015    0.5254 C.3     1  LIG1      -0.2699999999999996
     13 C          -0.5729    3.1838   -0.8231 C.3     1  LIG1      -0.2699999999999996
     14 C          -1.3264    2.6280   -2.0436 C.3     1  LIG1      -0.28000000000000025
     15 C          -2.8589    2.6799   -1.9195 C.3     1  LIG1      -0.28000000000000025
     16 C          -3.6103    2.5886   -3.2607 C.3     1  LIG1      -0.2699999999999996
     17 C          -3.4933    1.2469   -4.0027 C.3     1  LIG1      -0.33000000000000007
     18 C          -4.2428   -2.3639   -2.5386 C.3     1  LIG1       -0.04999999999999982
     19 CA         -3.4527   -1.1455   -3.0385 C.3     1  LIG1      -0.04999999999999982
     20 C          -4.3048    0.0849   -3.3680 C.3     1  LIG1       0.16999999999999993
     21 N          -2.4618   -0.8247   -1.9395 N.4     1  LIG1       -0.7699999999999996
     22 O          -3.3124   -3.2787   -1.9564 O.3     1  LIG1      -0.6600000000000001
     23 O          -5.2927   -0.4496   -4.2339 O.3     1  LIG1      -0.6699999999999999
     24 H           7.2747   -2.0547    3.7151 H       1  LIG1       0.15000000000000002
     25 H           7.5354   -3.7369    4.1903 H       1  LIG1          0.14
     26 H           7.4025   -2.4781    5.4287 H       1  LIG1          0.14
     27 H           5.1293   -3.3525    3.5421 H       1  LIG1          0.14
     28 H           5.2825   -3.8730    5.2081 H       1  LIG1          0.13
     29 H           3.6419   -2.0723    5.0694 H       1  LIG1          0.14
     30 H           5.0147   -1.5713    6.0382 H       1  LIG1          0.13
     31 H           4.2423    0.2512    4.5713 H       1  LIG1          0.14
     32 H           5.9047   -0.1755    4.2333 H       1  LIG1          0.13
     33 H           4.6903    0.2410    2.1495 H       1  LIG1          0.14
     34 H           5.2800   -1.4042    2.2039 H       1  LIG1          0.13
     35 H           3.0286   -1.3656    1.2666 H       1  LIG1          0.13
     36 H           3.0439   -2.2770    2.7609 H       1  LIG1          0.13
     37 H           1.0322   -0.8865    2.6351 H       1  LIG1          0.13
     38 H           2.0123   -0.4224    4.0061 H       1  LIG1          0.14
     39 H           1.0957    1.5583    2.8724 H       1  LIG1          0.13
     40 H           2.8430    1.5780    2.8804 H       1  LIG1          0.14
     41 H           1.9941    2.3500    0.7188 H       1  LIG1          0.14
     42 H           2.9596    0.9059    0.5236 H       1  LIG1          0.14
     43 H           0.9956    0.8013   -0.9219 H       1  LIG1          0.14
     44 H           0.9645   -0.5012    0.2560 H       1  LIG1          0.14
     45 H          -1.2812    0.4469   -0.0225 H       1  LIG1          0.12
     46 H          -0.7268    0.6493    1.6169 H       1  LIG1          0.14
     47 H          -1.9111    2.6576    0.8033 H       1  LIG1          0.14
     48 H          -0.2721    3.0161    1.2945 H       1  LIG1          0.14
     49 H          -0.8257    4.2482   -0.7286 H       1  LIG1          0.13
     50 H           0.5025    3.1479   -1.0325 H       1  LIG1          0.14
     51 H          -1.0258    3.2088   -2.9255 H       1  LIG1          0.14
     52 H          -0.9718    1.6029   -2.2539 H       1  LIG1          0.14
     53 H          -3.2192    1.9076   -1.2195 H       1  LIG1       0.15000000000000002
     54 H          -3.1316    3.6310   -1.4460 H       1  LIG1          0.14
     55 H          -4.6736    2.8121   -3.0984 H       1  LIG1       0.15000000000000002
     56 H          -3.2320    3.3813   -3.9177 H       1  LIG1          0.14
     57 H          -3.8611    1.3558   -5.0292 H       1  LIG1       0.17000000000000004
     58 H          -2.4343    0.9731   -4.1176 H       1  LIG1       0.16000000000000003
     59 H1         -4.9624   -2.0622   -1.7665 H       1  LIG1       0.17000000000000004
     60 H2         -4.8033   -2.7852   -3.3756 H       1  LIG1       0.19999999999999996
     61 HA         -2.8498   -1.4271   -3.9067 H       1  LIG1       0.21999999999999997
     62 H          -4.7731    0.4318   -2.4273 H       1  LIG1       0.16000000000000003
     63 H1         -2.0306   -1.7224   -1.6585 H       1  LIG1      0.43999999999999995
     64 H2         -1.7421   -0.1445   -2.2119 H       1  LIG1      0.45999999999999996
     65 H3         -2.9308   -0.4400   -1.1107 H       1  LIG1      0.44999999999999996
     66 H          -3.2569   -4.0864   -2.4861 H       1  LIG1       0.44999999999999996
     67 H          -5.9058    0.2561   -4.4927 H       1  LIG1       0.43999999999999995
@<TRIPOS>BOND
     1    57    17    1
     2    67    23    1
     3    23    20    1
     4    58    17    1
     5    17    20    1
     6    17    16    1
     7    56    16    1
     8    61    19    1
     9    60    18    1
    10    20    19    1
    11    20    62    1
    12    16    55    1
    13    16    15    1
    14    19    18    1
    15    19    21    1
    16    51    14    1
    17    18    22    1
    18    18    59    1
    19    66    22    1
    20    52    14    1
    21    64    21    1
    22    14    15    1
    23    14    13    1
    24    21    63    1
    25    21    65    1
    26    15    54    1
    27    15    53    1
    28    50    13    1
    29    43    10    1
    30    13    49    1
    31    13    12    1
    32    45    11    1
    33    10    44    1
    34    10    11    1
    35    10     9    1
    36    42     9    1
    37    12    11    1
    38    12    47    1
    39    12    48    1
    40    11    46    1
    41    41     9    1
    42     9     8    1
    43    35     6    1
    44    33     5    1
    45    34     5    1
    46     6     5    1
    47     6    36    1
    48     6     7    1
    49     8    39    1
    50     8    40    1
    51     8     7    1
    52    37     7    1
    53     5     4    1
    54     7    38    1
    55    27     2    1
    56    24     1    1
    57     4    32    1
    58     4    31    1
    59     4     3    1
    60    25     1    1
    61     1     2    1
    62     1    26    1
    63     2     3    1
    64     2    28    1
    65     3    29    1
    66     3    30    1
