@<TRIPOS>MOLECULE
UFPQIRYSPUYQHK-XWYPZHSRSA-M	6045292	-1004.9491338747812
 52 52 0 0 0
SMALL
MULLIKEN NwChem

@<TRIPOS>ATOM
      1 C           8.9297   -2.3544   -2.4238 C.3     1  LIG1      -0.45999999999999996
      2 C           7.4899   -2.2934   -2.9468 C.3     1  LIG1      -0.2599999999999998
      3 C           6.4350   -2.7692   -1.9338 C.3     1  LIG1      -0.2599999999999998
      4 C           6.4067   -1.9973   -0.6040 C.3     1  LIG1      -0.2599999999999998
      5 C           6.1899   -0.4737   -0.7449 C.3     1  LIG1      -0.3200000000000003
      6 C           4.9310   -0.1172   -1.4968 C.2     1  LIG1      -0.1299999999999999
      7 C           3.7347    0.1696   -0.9688 C.2     1  LIG1      -0.1299999999999999
      8 C           3.3762    0.2493    0.4979 C.3     1  LIG1      -0.3600000000000003
      9 C           3.0229    1.6632    0.8932 C.2     1  LIG1      -0.13999999999999968
     10 C           1.8166    2.1234    1.2869 C.2     1  LIG1      -0.15000000000000036
     11 C           0.5894    1.3715    1.4409 C.2     1  LIG1      -0.15000000000000036
     12 C          -0.5749    1.9185    1.8703 C.2     1  LIG1      -0.15000000000000036
     13 C          -1.8132    1.1960    2.0353 C.2     1  LIG1      -0.13999999999999968
     14 C          -4.9431   -0.7239   -0.7043 C.3     1  LIG1      -0.2699999999999996
     15 C          -2.9583    1.7517    2.4822 C.2     1  LIG1      -0.16000000000000014
     16 C          -4.6712    0.5826    0.0704 C.3     1  LIG1      -0.29000000000000004
     17 C          -6.3725   -1.2785   -0.5458 C.3     1  LIG1       -0.33000000000000007
     18 C          -4.2326    1.0245    2.6499 C.3     1  LIG1       0.040000000000000036
     19 C          -5.0437    0.4743    1.5243 C.3     1  LIG1       0.08999999999999986
     20 C          -7.4504   -0.1871   -0.8720 C.2     1  LIG1       0.5099999999999998
     21 O          -7.8917   -0.1805   -2.0433 O.co2   1  LIG1      -0.6799999999999997
     22 O          -7.7084    0.6057    0.0827 O.co2   1  LIG1      -0.6600000000000001
     23 O          -4.2353   -0.3792    2.3763 O.3     1  LIG1      -0.5199999999999996
     24 H           9.0834   -1.6667   -1.5844 H       1  LIG1       0.15000000000000002
     25 H           9.6489   -2.0852   -3.2062 H       1  LIG1          0.14
     26 H           9.1786   -3.3642   -2.0729 H       1  LIG1          0.14
     27 H           7.2619   -1.2667   -3.2637 H       1  LIG1          0.14
     28 H           7.4076   -2.9113   -3.8512 H       1  LIG1          0.13
     29 H           5.4432   -2.7075   -2.4002 H       1  LIG1          0.13
     30 H           6.6071   -3.8331   -1.7161 H       1  LIG1          0.13
     31 H           5.5980   -2.4047    0.0166 H       1  LIG1          0.13
     32 H           7.3400   -2.1722   -0.0513 H       1  LIG1          0.14
     33 H           6.1792   -0.0310    0.2578 H       1  LIG1       0.15000000000000002
     34 H           7.0535   -0.0324   -1.2612 H       1  LIG1       0.15000000000000002
     35 H           5.0123   -0.1325   -2.5840 H       1  LIG1          0.14
     36 H           2.9126    0.4067   -1.6441 H       1  LIG1          0.14
     37 H           2.5363   -0.4273    0.6960 H       1  LIG1       0.17000000000000004
     38 H           4.2103   -0.1083    1.1160 H       1  LIG1       0.17000000000000004
     39 H           3.8440    2.3749    0.8115 H       1  LIG1       0.15000000000000002
     40 H           1.7416    3.1862    1.5238 H       1  LIG1          0.14
     41 H           0.5981    0.3106    1.1955 H       1  LIG1       0.15000000000000002
     42 H          -0.5909    2.9833    2.1143 H       1  LIG1       0.15000000000000002
     43 H          -1.8267    0.1357    1.7894 H       1  LIG1       0.15000000000000002
     44 H          -4.7603   -0.5269   -1.7699 H       1  LIG1          0.13
     45 H          -4.2055   -1.4766   -0.3855 H       1  LIG1          0.13
     46 H          -2.9778    2.8090    2.7526 H       1  LIG1       0.16000000000000003
     47 H          -5.3001    1.3776   -0.3444 H       1  LIG1          0.14
     48 H          -3.6189    0.8715   -0.0417 H       1  LIG1          0.13
     49 H          -6.4930   -2.1330   -1.2240 H       1  LIG1       0.10999999999999999
     50 H          -6.5112   -1.6376    0.4831 H       1  LIG1          0.12
     51 H          -4.7940    1.3132    3.5457 H       1  LIG1       0.16000000000000003
     52 H          -6.1212    0.3906    1.6762 H       1  LIG1       0.17000000000000004
@<TRIPOS>BOND
     1    28     2    1
     2    27     2    1
     3    25     1    1
     4     2     1    1
     5     2     3    1
     6    35     6    1
     7     1    26    1
     8     1    24    1
     9    29     3    1
    10    21    20   ar
    11     3    30    1
    12     3     4    1
    13    44    14    1
    14    36     7    1
    15     6     7    2
    16     6     5    1
    17    34     5    1
    18    49    17    1
    19     7     8    1
    20    20    17    1
    21    20    22   ar
    22     5     4    1
    23     5    33    1
    24    14    17    1
    25    14    45    1
    26    14    16    1
    27     4    32    1
    28     4    31    1
    29    17    50    1
    30    47    16    1
    31    48    16    1
    32    16    19    1
    33     8    37    1
    34     8     9    1
    35     8    38    1
    36    39     9    1
    37     9    10    2
    38    41    11    1
    39    10    11    1
    40    10    40    1
    41    11    12    2
    42    19    52    1
    43    19    23    1
    44    19    18    1
    45    43    13    1
    46    12    13    1
    47    12    42    1
    48    13    15    2
    49    23    18    1
    50    15    18    1
    51    15    46    1
    52    18    51    1
