@<TRIPOS>MOLECULE
UFSCUAXLTRFIDC-UHFFFAOYSA-K	6045293	-757.3835566100133
 16 15 0 0 0
SMALL
MULLIKEN NwChem

@<TRIPOS>ATOM
      1 C           0.7763    0.6184   -1.4340 C.3     1  LIG1       -0.34999999999999964
      2 C          -0.0642   -0.3094   -0.5152 C.3     1  LIG1       -0.2599999999999998
      3 C           0.9371    2.1744   -1.2470 C.2     1  LIG1       0.5099999999999998
      4 C           0.4445   -0.4497    0.9178 C.2     1  LIG1       0.3700000000000001
      5 C          -1.6440   -0.1120   -0.6413 C.2     1  LIG1       0.5300000000000002
      6 C           0.4129   -1.8922    1.5872 C.2     1  LIG1       0.4500000000000002
      7 O           2.0393    2.6326   -1.6992 O.co2   1  LIG1      -0.7100000000000009
      8 O          -0.0277    2.8389   -0.7964 O.co2   1  LIG1      -0.6899999999999995
      9 O           1.0016    0.4596    1.5272 O.2     1  LIG1      -0.5500000000000007
     10 O          -2.0747   -0.0959   -1.8306 O.co2   1  LIG1      -0.6799999999999997
     11 O          -2.3184   -0.0910    0.4204 O.co2   1  LIG1      -0.6799999999999997
     12 O           0.2114   -1.9542    2.8287 O.co2   1  LIG1      -0.6699999999999999
     13 O           0.6979   -2.8481    0.8031 O.co2   1  LIG1      -0.6500000000000004
     14 H           0.3151    0.4989   -2.4279 H       1  LIG1          0.13
     15 H           1.7977    0.2120   -1.5124 H       1  LIG1       0.10999999999999999
     16 H           0.0629   -1.3182   -0.9331 H       1  LIG1           0.14
@<TRIPOS>BOND
     1    14     1    1
     2    10     5   ar
     3     7     3   ar
     4    15     1    1
     5     1     3    1
     6     1     2    1
     7     3     8   ar
     8    16     2    1
     9     5     2    1
    10     5    11   ar
    11     2     4    1
    12    13     6   ar
    13     4     9    2
    14     4     6    1
    15     6    12   ar
