@<TRIPOS>MOLECULE
UGAGPNKCDRTDHP-UHFFFAOYSA-M	6045294	-853.8222546785399
 50 49 0 0 0
SMALL
MULLIKEN NwChem

@<TRIPOS>ATOM
      1 C           2.2238   -0.0358   -1.9163 C.3     1  LIG1      -0.2599999999999998
      2 C           1.5883   -1.4332   -1.8122 C.3     1  LIG1      -0.2699999999999996
      3 C           1.9543    0.9030   -0.7306 C.3     1  LIG1      -0.2699999999999996
      4 C           2.0369   -2.3239   -0.6362 C.3     1  LIG1      -0.2699999999999996
      5 C           2.2877    2.3797   -1.0033 C.3     1  LIG1      -0.2699999999999996
      6 C           1.4122   -2.0408    0.7477 C.3     1  LIG1      -0.2699999999999996
      7 C           1.4093    3.0715   -2.0629 C.3     1  LIG1      -0.2699999999999996
      8 C          -0.1237   -1.9867    0.7812 C.3     1  LIG1      -0.28000000000000025
      9 C          -0.1055    2.9887   -1.8026 C.3     1  LIG1      -0.2699999999999996
     10 C          -0.8362   -3.2346    0.2332 C.3     1  LIG1      -0.2599999999999998
     11 C          -0.5613    3.5164   -0.4300 C.3     1  LIG1      -0.29000000000000004
     12 C          -0.4587   -4.5541    0.9336 C.3     1  LIG1      -0.2699999999999996
     13 C          -0.1796    4.9761   -0.1270 C.3     1  LIG1      -0.28000000000000025
     14 C          -0.6103   -4.5149    2.4649 C.3     1  LIG1       -0.3200000000000003
     15 C          -0.6883    5.9850   -1.1610 C.3     1  LIG1       -0.04999999999999982
     16 C          -2.0586   -4.0468    2.8473 C.2     1  LIG1       0.5099999999999998
     17 O          -2.1070    5.9791   -1.3056 O.3     1  LIG1      -0.6799999999999997
     18 O          -2.9471   -4.9254    2.7238 O.co2   1  LIG1      -0.6899999999999995
     19 O          -2.1707   -2.8300    3.1634 O.co2   1  LIG1      -0.6699999999999999
     20 H           1.8503    0.4296   -2.8400 H       1  LIG1          0.13
     21 H           3.3125   -0.1353   -2.0494 H       1  LIG1          0.13
     22 H           0.4965   -1.3260   -1.7890 H       1  LIG1          0.14
     23 H           1.8145   -1.9645   -2.7482 H       1  LIG1          0.12
     24 H           0.9058    0.8074   -0.4219 H       1  LIG1       0.15000000000000002
     25 H           2.5428    0.5705    0.1311 H       1  LIG1          0.14
     26 H           1.7954   -3.3615   -0.9009 H       1  LIG1          0.14
     27 H           3.1351   -2.2822   -0.5567 H       1  LIG1          0.12
     28 H           2.2117    2.9362   -0.0591 H       1  LIG1          0.14
     29 H           3.3392    2.4614   -1.3163 H       1  LIG1          0.13
     30 H           1.7524   -2.8320    1.4288 H       1  LIG1          0.13
     31 H           1.8097   -1.1055    1.1615 H       1  LIG1          0.13
     32 H           1.7122    4.1258   -2.1314 H       1  LIG1          0.14
     33 H           1.6125    2.6401   -3.0516 H       1  LIG1          0.13
     34 H          -0.4723   -1.8488    1.8114 H       1  LIG1          0.14
     35 H          -0.4706   -1.1048    0.2200 H       1  LIG1          0.13
     36 H          -0.6248    3.5358   -2.6035 H       1  LIG1          0.14
     37 H          -0.4347    1.9466   -1.8975 H       1  LIG1          0.14
     38 H          -1.9129   -3.0770    0.3613 H       1  LIG1          0.12
     39 H          -0.6551   -3.3376   -0.8495 H       1  LIG1          0.13
     40 H          -1.6522    3.4080   -0.3511 H       1  LIG1          0.13
     41 H          -0.1535    2.8758    0.3604 H       1  LIG1       0.15000000000000002
     42 H          -1.1228   -5.3422    0.5537 H       1  LIG1          0.12
     43 H           0.5687   -4.8426    0.6533 H       1  LIG1          0.13
     44 H          -0.5822    5.2509    0.8562 H       1  LIG1          0.14
     45 H           0.9128    5.0726   -0.0617 H       1  LIG1       0.15000000000000002
     46 H          -0.4309   -5.5249    2.8594 H       1  LIG1       0.10999999999999999
     47 H           0.1329   -3.8386    2.9077 H       1  LIG1          0.12
     48 H          -0.4340    7.0029   -0.8459 H       1  LIG1       0.15000000000000002
     49 H          -0.1940    5.8157   -2.1321 H       1  LIG1          0.14
     50 H          -2.3617    5.0993   -1.6232 H       1  LIG1       0.43000000000000005
@<TRIPOS>BOND
     1    33     7    1
     2    20     1    1
     3    23     2    1
     4    36     9    1
     5    49    15    1
     6    32     7    1
     7     7     9    1
     8     7     5    1
     9    21     1    1
    10     1     2    1
    11     1     3    1
    12    37     9    1
    13     2    22    1
    14     2     4    1
    15     9    11    1
    16    50    17    1
    17    29     5    1
    18    17    15    1
    19    15    48    1
    20    15    13    1
    21     5     3    1
    22     5    28    1
    23    26     4    1
    24    39    10    1
    25     3    24    1
    26     3    25    1
    27     4    27    1
    28     4     6    1
    29    11    40    1
    30    11    13    1
    31    11    41    1
    32    13    45    1
    33    13    44    1
    34    35     8    1
    35    10    38    1
    36    10     8    1
    37    10    12    1
    38    42    12    1
    39    43    12    1
    40     6     8    1
    41     6    31    1
    42     6    30    1
    43     8    34    1
    44    12    14    1
    45    14    16    1
    46    14    46    1
    47    14    47    1
    48    18    16   ar
    49    16    19   ar
