@<TRIPOS>MOLECULE
UGFAIRIUMAVXCW-UHFFFAOYSA-N	6045295	-113.32076927119293
 2 1 0 0 0
SMALL
MULLIKEN NwChem

@<TRIPOS>ATOM
      1 C          -0.6522    0.0000   -0.0000 C.2     1  LIG1       0.17999999999999972
      2 O           0.4856   -0.0000    0.0000 O.2     1  LIG1      -0.17999999999999972
@<TRIPOS>BOND
     1     1     2    2
