@<TRIPOS>MOLECULE
UGQMRVRMYYASKQ-KQYNXXCUSA-N	6045296	-983.2171433147123
 31 33 0 0 0
SMALL
MULLIKEN NwChem

@<TRIPOS>ATOM
      1 C5*         1.5100    3.4359    1.0942 C.3     1    I1       -0.07000000000000028
      2 C2          0.1810   -3.1425   -2.0380 C.ar    1    I1       0.16999999999999993
      3 C8         -0.0255   -0.6632    1.5363 C.ar    1    I1       0.21999999999999975
      4 C4*         0.8629    2.9948   -0.2221 C.3     1    I1       0.1200000000000001
      5 C5          0.1715   -2.5456    0.5761 C.ar    1    I1       0.1900000000000004
      6 C3*        -0.6592    3.2149   -0.3046 C.3     1    I1       0.07000000000000028
      7 C2*        -1.2304    1.8571    0.1230 C.3     1    I1       0.08000000000000007
      8 C4          0.0398   -1.6025   -0.4581 C.ar    1    I1          0.54
      9 C6          0.3116   -3.8733    0.1428 C.ar    1    I1       0.5099999999999998
     10 C1*        -0.1763    0.8983   -0.4743 C.3     1    I1          0.25
     11 N3          0.0386   -1.8436   -1.7728 N.ar    1    I1      -0.5199999999999996
     12 N1          0.3154   -4.1555   -1.1609 N.ar    1    I1      -0.5300000000000002
     13 N7          0.1299   -1.9312    1.8166 N.ar    1    I1      -0.5599999999999996
     14 N9         -0.0968   -0.3850    0.1777 N.ar    1    I1      -0.5099999999999998
     15 O5*         1.0567    2.6497    2.1876 O.3     1    I1      -0.6600000000000001
     16 O3*        -1.1016    3.3927   -1.6528 O.3     1    I1      -0.6799999999999997
     17 O2*        -2.5407    1.6032   -0.3015 O.3     1    I1      -0.6699999999999999
     18 O6          0.4443   -4.8789    1.0177 O.3     1    I1      -0.6199999999999992
     19 O4*         1.0773    1.5731   -0.3469 O.3     1    I1      -0.5399999999999991
     20 H5*1        1.2493    4.4761    1.3174 H       1    I1       0.17000000000000004
     21 H5*2        2.6036    3.3765    0.9920 H       1    I1       0.16000000000000003
     22 H2          0.1904   -3.4247   -3.0878 H       1    I1       0.18000000000000005
     23 H8         -0.1112    0.1228    2.2746 H       1    I1       0.21999999999999997
     24 H4*         1.3524    3.5039   -1.0643 H       1    I1       0.17000000000000004
     25 H3*        -1.0034    4.0355    0.3370 H       1    I1       0.18000000000000005
     26 H2*        -1.2101    1.7992    1.2134 H       1    I1       0.18000000000000005
     27 H1*        -0.4003    0.6966   -1.5270 H       1    I1       0.18999999999999995
     28 H5*         1.4008    1.7571    2.0202 H       1    I1       0.43000000000000005
     29 H3*        -0.8763    4.2872   -1.9475 H       1    I1       0.44999999999999996
     30 H2*        -2.6183    1.9987   -1.1877 H       1    I1       0.43000000000000005
     31 H6          0.5222   -5.6911    0.4829 H       1    I1       0.44999999999999996
@<TRIPOS>BOND
     1    22     2    1
     2     2    11   ar
     3     2    12   ar
     4    29    16    1
     5    11     8   ar
     6    16     6    1
     7    27    10    1
     8    30    17    1
     9    12     9   ar
    10    24     4    1
    11    10    19    1
    12    10     7    1
    13    10    14    1
    14     8    14   ar
    15     8     5   ar
    16    19     4    1
    17     6     4    1
    18     6     7    1
    19     6    25    1
    20    17     7    1
    21     4     1    1
    22     7    26    1
    23     9     5   ar
    24     9    18    1
    25    14     3   ar
    26    31    18    1
    27     5    13   ar
    28    21     1    1
    29     1    20    1
    30     1    15    1
    31     3    13   ar
    32     3    23    1
    33    28    15    1
