@<TRIPOS>MOLECULE
UHDGCWIWMRVCDJ-XVFCMESISA-N	6045297	-890.9332244693842
 30 31 0 0 0
SMALL
MULLIKEN NwChem

@<TRIPOS>ATOM
      1 C5          0.6063   -1.1457   -3.5053 C.2     1    C1       -0.20999999999999996
      2 C6          0.4815   -1.5179   -2.2221 C.2     1    C1       0.07000000000000028
      3 C5*        -2.4311    0.5711    2.2135 C.3     1    C1       -0.04999999999999982
      4 C4*        -1.2393   -0.3220    1.8930 C.3     1    C1       0.09999999999999964
      5 C4          0.6975    0.2732   -3.8588 C.2     1    C1       0.4400000000000004
      6 C3*         0.1195    0.3253    2.2092 C.3     1    C1       0.08999999999999986
      7 C2*         1.0835   -0.4568    1.2907 C.3     1    C1       0.05999999999999961
      8 C1*         0.1503   -0.9914    0.1721 C.3     1    C1       0.2699999999999996
      9 C2          0.5027    0.7473   -1.5791 C.3     1    C1       0.7599999999999998
     10 N4          0.8316    0.6357   -5.0828 N.pl3   1    C1      -0.7400000000000002
     11 N3          0.6245    1.1844   -2.7802 N.2     1    C1      -0.5899999999999999
     12 N1          0.4575   -0.5740   -1.1850 N.pl3   1    C1         -0.5
     13 O5*        -2.5419    0.7587    3.6154 O.3     1    C1      -0.6699999999999999
     14 O3*         0.4669    0.2942    3.5856 O.3     1    C1      -0.6600000000000001
     15 O2*         1.6044   -1.5973    1.9734 O.3     1    C1      -0.6699999999999999
     16 O2          0.4337    1.6232   -0.5525 O.3     1    C1      -0.6199999999999992
     17 O4*        -1.1785   -0.5962    0.4955 O.3     1    C1      -0.5299999999999994
     18 H5          0.6382   -1.8799   -4.3006 H       1    C1       0.17000000000000004
     19 H6          0.4030   -2.5493   -1.9001 H       1    C1       0.21999999999999997
     20 H5*1       -2.3196    1.5217    1.6658 H       1    C1          0.14
     21 H5*2       -3.3598    0.0995    1.8786 H       1    C1       0.17000000000000004
     22 H4*        -1.3344   -1.2599    2.4676 H       1    C1       0.15000000000000002
     23 H3*         0.1031    1.3774    1.9198 H       1    C1       0.18000000000000005
     24 H2*         1.8896    0.1637    0.8891 H       1    C1       0.18000000000000005
     25 H1*         0.2368   -2.0844    0.1792 H       1    C1       0.19999999999999996
     26 H4          0.8718    1.6590   -5.1225 H       1    C1       0.29000000000000004
     27 H5*        -1.6649    1.0118    3.9513 H       1    C1       0.42000000000000004
     28 H3*         0.4312   -0.6390    3.8578 H       1    C1       0.43000000000000005
     29 H2*         2.2747   -1.2705    2.5947 H       1    C1       0.43999999999999995
     30 H2          0.4836    2.5011   -0.9732 H       1    C1       0.45999999999999996
@<TRIPOS>BOND
     1    26    10    1
     2    10     5    1
     3    18     1    1
     4     5     1    1
     5     5    11    2
     6     1     2    2
     7    11     9    1
     8     2    19    1
     9     2    12    1
    10     9    12    1
    11     9    16    1
    12    12     8    1
    13    30    16    1
    14     8    25    1
    15     8    17    1
    16     8     7    1
    17    17     4    1
    18    24     7    1
    19     7    15    1
    20     7     6    1
    21    20     3    1
    22    21     3    1
    23     4     6    1
    24     4     3    1
    25     4    22    1
    26    23     6    1
    27    15    29    1
    28     6    14    1
    29     3    13    1
    30    14    28    1
    31    13    27    1
