@<TRIPOS>MOLECULE
UHSGPDMIQQYNAX-UHFFFAOYSA-L	11083979	-1838.1508992486506
 80 84 0 0 0
SMALL
MULLIKEN NwChem

@<TRIPOS>ATOM
      1 C          -6.2396    2.9702   -0.0106 C.2     1  LIG1      -0.41999999999999993
      2 C          -5.7035   -3.9655   -0.0016 C.2     1  LIG1      -0.41999999999999993
      3 C          -3.6613    4.4207   -1.4705 C.3     1  LIG1      -0.5499999999999998
      4 C          -5.4195   -1.3530    1.9643 C.3     1  LIG1      -0.5599999999999996
      5 C           1.4247    4.0104    1.7974 C.3     1  LIG1      -0.5899999999999999
      6 C           0.9884   -4.7314   -0.4326 C.3     1  LIG1      -0.5899999999999999
      7 C          -5.2028    2.3221    0.5507 C.2     1  LIG1      -0.13999999999999968
      8 C          -4.4272   -3.5945   -0.2151 C.2     1  LIG1      -0.15000000000000036
      9 C           3.4307    1.4854    1.5017 C.3     1  LIG1      -0.33000000000000007
     10 C           3.6410   -2.9390   -0.6230 C.3     1  LIG1      -0.33999999999999986
     11 C           4.8337    2.0732    1.2401 C.3     1  LIG1       -0.34999999999999964
     12 C           4.3659   -3.2392   -1.9513 C.3     1  LIG1       -0.33999999999999986
     13 C          -0.4808    3.9468   -0.8129 C.2     1  LIG1      -0.4299999999999997
     14 C          -2.9180    0.7441    2.1230 C.2     1  LIG1      -0.4500000000000002
     15 C          -1.5049   -2.7455   -1.1566 C.2     1  LIG1      -0.4299999999999997
     16 C           2.6596    0.0735   -1.3227 C.2     1  LIG1      -0.4400000000000004
     17 C          -3.0721    3.4833   -0.4588 C.ar    1  LIG1      0.009999999999999787
     18 C          -4.1027   -1.4403    1.2521 C.ar    1  LIG1      0.019999999999999574
     19 C           1.5145    3.0770    0.6218 C.ar    1  LIG1      0.03000000000000025
     20 C           1.0289   -3.2650   -0.7510 C.ar    1  LIG1      0.040000000000000036
     21 C          -3.7796    2.5815    0.4238 C.ar    1  LIG1       0.009999999999999787
     22 C          -3.6986   -2.4470    0.2939 C.ar    1  LIG1           0.0
     23 C           2.3838    1.9313    0.5131 C.ar    1  LIG1      0.03000000000000025
     24 C           2.2224   -2.4604   -0.7987 C.ar    1  LIG1      0.009999999999999787
     25 C          -1.7228    3.3127   -0.2229 C.ar    1  LIG1       0.28000000000000025
     26 C           0.7404    3.1256   -0.5243 C.ar    1  LIG1       0.20000000000000018
     27 C          -3.0480   -0.5619    1.3886 C.ar    1  LIG1       0.28000000000000025
     28 C          -0.0429   -2.4405   -1.0300 C.ar    1  LIG1       0.23000000000000043
     29 C          -2.8116    1.9055    1.1700 C.ar    1  LIG1       0.2699999999999996
     30 C          -2.4001   -2.1266   -0.1095 C.ar    1  LIG1       0.2699999999999996
     31 C           2.1002    1.3170   -0.6915 C.ar    1  LIG1       0.23000000000000043
     32 C           1.8359   -1.1673   -1.0928 C.ar    1  LIG1       0.2699999999999996
     33 C           5.0628    3.5354    1.7767 C.2     1  LIG1       0.5199999999999996
     34 C           4.0027   -4.6184   -2.6176 C.2     1  LIG1       0.5199999999999996
     35 N          -1.5914    2.3607    0.7640 N.ar    1  LIG1      -0.6799999999999997
     36 N          -2.0336   -0.9938    0.5561 N.ar    1  LIG1      -0.6799999999999997
     37 N           1.0654    2.0181   -1.2977 N.ar    1  LIG1      -0.6600000000000001
     38 N           0.4542   -1.1524   -1.2103 N.ar    1  LIG1      -0.6900000000000004
     39 O           5.9563    4.1860    1.1907 O.co2   1  LIG1      -0.6799999999999997
     40 O           4.3623    3.8720    2.7773 O.co2   1  LIG1      -0.6500000000000004
     41 O           4.1286   -4.6616   -3.8627 O.co2   1  LIG1      -0.6799999999999997
     42 O           3.6837   -5.5473   -1.8187 O.co2   1  LIG1      -0.6500000000000004
     43 H          -7.2592    2.6429    0.1755 H       1  LIG1          0.14
     44 H          -6.1195    3.8292   -0.6612 H       1  LIG1       0.15000000000000002
     45 H          -6.3926   -3.3993    0.6147 H       1  LIG1       0.15000000000000002
     46 H          -6.0968   -4.8692   -0.4597 H       1  LIG1          0.14
     47 H          -4.3442    3.9008   -2.1556 H       1  LIG1       0.16000000000000003
     48 H          -2.8763    4.8893   -2.0748 H       1  LIG1       0.16000000000000003
     49 H          -4.2374    5.2313   -1.0015 H       1  LIG1       0.16000000000000003
     50 H          -5.6544   -2.2856    2.4940 H       1  LIG1       0.16000000000000003
     51 H          -6.2498   -1.1609    1.2703 H       1  LIG1       0.16000000000000003
     52 H          -5.4222   -0.5463    2.7058 H       1  LIG1       0.17000000000000004
     53 H           0.7936    3.5942    2.5990 H       1  LIG1          0.14
     54 H           0.9812    4.9727    1.5100 H       1  LIG1       0.15000000000000002
     55 H           2.4256    4.1780    2.2210 H       1  LIG1       0.19999999999999996
     56 H           1.8105   -5.2462   -0.9496 H       1  LIG1       0.18000000000000005
     57 H           0.0325   -5.1855   -0.7254 H       1  LIG1       0.15000000000000002
     58 H           1.1128   -4.9076    0.6466 H       1  LIG1          0.14
     59 H          -5.4453    1.4744    1.1920 H       1  LIG1          0.14
     60 H          -3.8369   -4.2395   -0.8674 H       1  LIG1          0.14
     61 H           3.4683    0.3864    1.4941 H       1  LIG1          0.13
     62 H           3.1472    1.8013    2.5118 H       1  LIG1          0.13
     63 H           4.2015   -2.1861   -0.0472 H       1  LIG1          0.13
     64 H           3.6501   -3.8686   -0.0441 H       1  LIG1          0.13
     65 H           5.5757    1.4386    1.7500 H       1  LIG1          0.13
     66 H           5.0803    2.0427    0.1719 H       1  LIG1          0.12
     67 H           5.4504   -3.2644   -1.7573 H       1  LIG1          0.13
     68 H           4.1974   -2.4365   -2.6799 H       1  LIG1       0.10999999999999999
     69 H          -0.3376    4.9542   -0.3993 H       1  LIG1       0.18000000000000005
     70 H          -0.6214    4.0821   -1.8953 H       1  LIG1       0.17000000000000004
     71 H          -3.7809    0.8735    2.7830 H       1  LIG1       0.18000000000000005
     72 H          -2.0334    0.7370    2.7776 H       1  LIG1       0.18000000000000005
     73 H          -1.6236   -3.8331   -1.1311 H       1  LIG1       0.18999999999999995
     74 H          -1.8730   -2.4335   -2.1500 H       1  LIG1       0.18000000000000005
     75 H           2.7977    0.2413   -2.4051 H       1  LIG1       0.17000000000000004
     76 H           3.6637   -0.1039   -0.9281 H       1  LIG1       0.18000000000000005
     77 H          -0.6827    2.0788    1.1163 H       1  LIG1          0.37
     78 H          -1.1120   -0.5817    0.4753 H       1  LIG1          0.36
     79 H           0.8496    1.9424   -2.2819 H       1  LIG1          0.36
     80 H          -0.0687   -0.3644   -1.5641 H       1  LIG1           0.36
@<TRIPOS>BOND
     1    41    34   ar
     2    68    12    1
     3    34    12    1
     4    34    42   ar
     5    75    16    1
     6    79    37    1
     7    47     3    1
     8    74    15    1
     9    48     3    1
    10    12    67    1
    11    12    10    1
    12    70    13    1
    13    80    38    1
    14     3    49    1
    15     3    17    1
    16    16    32    1
    17    16    76    1
    18    16    31    2
    19    37    31   ar
    20    37    26   ar
    21    38    32   ar
    22    38    28   ar
    23    15    73    1
    24    15    28    2
    25    15    30    1
    26    32    24   ar
    27    28    20   ar
    28    56     6    1
    29    60     8    1
    30    13    26    2
    31    13    69    1
    32    13    25    1
    33    24    20   ar
    34    24    10    1
    35    20     6    1
    36    57     6    1
    37    31    23   ar
    38    44     1    1
    39    10    63    1
    40    10    64    1
    41    26    19   ar
    42    46     2    1
    43    17    25   ar
    44    17    21   ar
    45     6    58    1
    46    25    35   ar
    47     8     2    2
    48     8    22    1
    49    30    22   ar
    50    30    36   ar
    51     1    43    1
    52     1     7    2
    53     2    45    1
    54    66    11    1
    55    22    18   ar
    56    21     7    1
    57    21    29   ar
    58    78    36    1
    59    23    19   ar
    60    23     9    1
    61     7    59    1
    62    36    27   ar
    63    19     5    1
    64    35    77    1
    65    35    29   ar
    66    29    14    2
    67    39    33   ar
    68    11     9    1
    69    11    65    1
    70    11    33    1
    71    18    27   ar
    72    18     4    1
    73    51     4    1
    74    27    14    1
    75    61     9    1
    76     9    62    1
    77    54     5    1
    78    33    40   ar
    79     5    55    1
    80     5    53    1
    81     4    50    1
    82     4    52    1
    83    14    72    1
    84    14    71    1
