@<TRIPOS>MOLECULE
UIUJIQZEACWQSV-UHFFFAOYSA-M	6045300	-381.20348375253263
 12 11 0 0 0
SMALL
MULLIKEN NwChem

@<TRIPOS>ATOM
      1 C          -0.6674    1.6121   -1.4246 C.3     1  LIG1      -0.5499999999999998
      2 C           0.9906    0.0579   -0.2542 C.3     1  LIG1       -0.4400000000000004
      3 C           0.2830    1.3761   -0.2603 C.2     1  LIG1       0.4500000000000002
      4 C           0.0094   -1.2086    0.0592 C.2     1  LIG1       0.5300000000000002
      5 O           0.4092    2.2107    0.6336 O.2     1  LIG1      -0.5399999999999991
      6 O          -1.0171   -1.2757   -0.6563 O.co2   1  LIG1      -0.6300000000000008
      7 O           0.4441   -1.9676    0.9434 O.co2   1  LIG1      -0.6400000000000006
      8 H          -1.2449    2.5278   -1.2646 H       1  LIG1       0.15000000000000002
      9 H          -0.1016    1.6946   -2.3636 H       1  LIG1       0.18000000000000005
     10 H          -1.3045    0.7221   -1.5036 H       1  LIG1       0.18999999999999995
     11 H           1.3957   -0.1528   -1.2537 H       1  LIG1       0.17000000000000004
     12 H           1.7949    0.0716    0.4834 H       1  LIG1           0.13
@<TRIPOS>BOND
     1     9     1    1
     2    10     1    1
     3     1     8    1
     4     1     3    1
     5    11     2    1
     6     6     4   ar
     7     3     2    1
     8     3     5    2
     9     2     4    1
    10     2    12    1
    11     4     7   ar
