@<TRIPOS>MOLECULE
UJLXYODCHAELLY-XLPZGREQSA-K	11083977	-2009.0141370232438
 38 39 0 0 0
SMALL
MULLIKEN NwChem

@<TRIPOS>ATOM
      1 C          -5.4537    0.7087   -1.2512 C.3     1  LIG1      -0.5300000000000002
      2 C          -0.5221   -1.9329   -0.6771 C.3     1  LIG1       -0.3200000000000003
      3 C          -3.4411   -0.4684   -0.3184 C.ar    1  LIG1       0.009999999999999787
      4 C           0.1947    1.2490   -0.6255 C.3     1  LIG1       -0.04999999999999982
      5 C          -4.7586   -0.4709   -0.6353 C.ar    1  LIG1       0.040000000000000036
      6 C           0.8114   -1.2443   -0.3732 C.3     1  LIG1       0.09999999999999964
      7 C           0.3408    0.0523    0.3212 C.3     1  LIG1       0.11000000000000032
      8 C          -1.3917   -1.5471    0.5268 C.3     1  LIG1       0.2999999999999998
      9 C          -5.5517   -1.6817   -0.3317 C.ar    1  LIG1       0.46999999999999975
     10 C          -3.5975   -2.7561    0.5092 C.ar    1  LIG1       0.6600000000000001
     11 N          -4.9201   -2.7583    0.2256 N.ar    1  LIG1      -0.6699999999999999
     12 N          -2.8383   -1.5507    0.2629 N.ar    1  LIG1         -0.5
     13 O           1.5695   -2.0682    0.4848 O.3     1  LIG1      -0.7400000000000002
     14 O          -6.7806   -1.6844   -0.5960 O.2     1  LIG1      -0.6799999999999997
     15 O          -2.9730   -3.7305    0.9687 O.2     1  LIG1      -0.6600000000000001
     16 O           3.2023    1.2504    2.0608 O.3     1  LIG1      -0.7799999999999994
     17 O           5.6565    1.0376    1.2316 O.3     1  LIG1      -0.6799999999999997
     18 O           3.8475   -0.6844    0.4915 O.2     1  LIG1      -0.7100000000000009
     19 O           1.9173    3.1374    0.6957 O.3     1  LIG1      -0.7400000000000002
     20 O           2.7949    3.6794   -1.7332 O.2     1  LIG1      -0.6600000000000001
     21 O           1.4074    1.5670   -1.2905 O.3     1  LIG1      -0.5899999999999999
     22 O          -0.9689   -0.2315    0.8881 O.3     1  LIG1      -0.5600000000000005
     23 O           3.7983    1.7571   -0.3904 O.3     1  LIG1      -0.6600000000000001
     24 P           4.2256    0.7352    0.8838 P.3     1  LIG1       1.0899999999999999
     25 P           2.4764    2.6907   -0.6520 P.3     1  LIG1       1.1300000000000008
     26 H          -5.9404    0.4305   -2.1974 H       1  LIG1       0.15000000000000002
     27 H          -6.2630    1.0785   -0.6040 H       1  LIG1       0.15000000000000002
     28 H          -4.7573    1.5364   -1.4455 H       1  LIG1       0.15000000000000002
     29 H          -0.9754   -1.5235   -1.5894 H       1  LIG1       0.17000000000000004
     30 H          -0.4242   -3.0161   -0.7794 H       1  LIG1       0.16000000000000003
     31 H          -2.7924    0.3890   -0.4715 H       1  LIG1       0.18000000000000005
     32 H          -0.1868    2.1040   -0.0561 H       1  LIG1       0.15000000000000002
     33 H          -0.5400    0.9933   -1.4051 H       1  LIG1       0.16000000000000003
     34 H           1.3768   -0.9874   -1.2804 H       1  LIG1          0.14
     35 H           1.0270    0.3097    1.1325 H       1  LIG1       0.15000000000000002
     36 H          -1.2341   -2.2440    1.3525 H       1  LIG1       0.16000000000000003
     37 H           2.4357   -1.5785    0.6071 H       1  LIG1       0.43999999999999995
     38 H           2.6771    2.0339    1.7233 H       1  LIG1       0.45999999999999996
@<TRIPOS>BOND
     1    26     1    1
     2    20    25    2
     3    29     2    1
     4    28     1    1
     5    33     4    1
     6    21    25    1
     7    21     4    1
     8    34     6    1
     9     1     5    1
    10     1    27    1
    11    30     2    1
    12     2     6    1
    13     2     8    1
    14    25    23    1
    15    25    19    1
    16     5     9   ar
    17     5     3   ar
    18     4    32    1
    19     4     7    1
    20    14     9    2
    21    31     3    1
    22    23    24    1
    23     6     7    1
    24     6    13    1
    25     9    11   ar
    26     3    12   ar
    27    11    10   ar
    28    12    10   ar
    29    12     8    1
    30     7    22    1
    31     7    35    1
    32    13    37    1
    33    18    24    2
    34    10    15    2
    35     8    22    1
    36     8    36    1
    37    24    17    1
    38    24    16    1
    39    38    16    1
