@<TRIPOS>MOLECULE
UKAUYVFTDYCKQA-VKHMYHEASA-N	6045302	-438.17045429718
 17 16 0 0 0
SMALL
MULLIKEN NwChem

@<TRIPOS>ATOM
      1 C           0.1582    1.1140    0.2925 C.3     1  LIG1      -0.29000000000000004
      2 C          -0.2278    2.1555   -0.7599 C.3     1  LIG1       -0.040000000000000036
      3 CA         -0.3095   -0.2985   -0.1215 C.3     1  LIG1       -0.04999999999999982
      4 C           0.3595   -1.3456    0.7645 C.2     1  LIG1       0.5700000000000003
      5 N          -1.7655   -0.3751   -0.0898 N.3     1  LIG1        -0.75
      6 O           0.3731    1.8908   -2.0257 O.3     1  LIG1      -0.6600000000000001
      7 OXT        -0.2035   -2.0077    1.6096 O.2     1  LIG1      -0.5199999999999996
      8 O           1.6913   -1.4448    0.5220 O.3     1  LIG1      -0.5800000000000001
      9 H          -0.2935    1.3777    1.2588 H       1  LIG1       0.16000000000000003
     10 H           1.2471    1.1151    0.4337 H       1  LIG1       0.16000000000000003
     11 H          -1.3062    2.1162   -0.9307 H       1  LIG1       0.15000000000000002
     12 H           0.0291    3.1643   -0.3988 H       1  LIG1          0.14
     13 HA          0.0340   -0.4557   -1.1502 H       1  LIG1       0.18000000000000005
     14 H1         -2.0741   -1.2106   -0.5836 H       1  LIG1       0.32999999999999996
     15 H2         -2.0576   -0.5126    0.8782 H       1  LIG1       0.31999999999999995
     16 H           1.3342    1.9652   -1.9151 H       1  LIG1       0.42000000000000004
     17 H           2.0369   -2.1103    1.1467 H       1  LIG1       0.44999999999999996
@<TRIPOS>BOND
     1     6    16    1
     2     6     2    1
     3    13     3    1
     4    11     2    1
     5     2    12    1
     6     2     1    1
     7    14     5    1
     8     3     5    1
     9     3     1    1
    10     3     4    1
    11     5    15    1
    12     1    10    1
    13     1     9    1
    14     8     4    1
    15     8    17    1
    16     4     7    2
