@<TRIPOS>MOLECULE
UKHZBTWECWUVPH-UHFFFAOYSA-L	6045303	-1242.4886691273725
 36 35 0 0 0
SMALL
MULLIKEN NwChem

@<TRIPOS>ATOM
      1 C          -1.9516    0.3366   -4.8248 C.3     1  LIG1      -0.5999999999999996
      2 C          -0.7532    0.1016   -1.3768 C.3     1  LIG1      -0.2699999999999996
      3 C          -0.0840    1.0665   -0.3819 C.3     1  LIG1      -0.2699999999999996
      4 C          -2.2911    0.0651   -1.3172 C.3     1  LIG1      -0.2699999999999996
      5 C          -0.4447    0.8313    1.0956 C.3     1  LIG1      -0.29000000000000004
      6 C          -2.9859    1.4255   -1.4772 C.3     1  LIG1      -0.2599999999999998
      7 C          -0.1552   -0.5888    1.6183 C.3     1  LIG1        -0.25
      8 C          -2.6692    2.1950   -2.7647 C.3     1  LIG1      -0.41999999999999993
      9 C           1.2603   -1.1137    1.3203 C.3     1  LIG1         -0.25
     10 C           2.3503   -0.1386    1.7611 C.2     1  LIG1       0.3799999999999999
     11 C           1.4614   -2.6043    1.8936 C.2     1  LIG1       0.5099999999999998
     12 C           2.4267    0.3507    3.2327 C.2     1  LIG1       0.46999999999999975
     13 O           3.1241    0.3345    0.9202 O.2     1  LIG1      -0.5600000000000005
     14 O           2.3832   -3.2474    1.3372 O.co2   1  LIG1      -0.6799999999999997
     15 O           0.6512   -2.9666    2.7817 O.co2   1  LIG1      -0.6600000000000001
     16 O           1.5136    1.1810    3.5235 O.co2   1  LIG1      -0.6300000000000008
     17 O           3.3760   -0.0597    3.9328 O.co2   1  LIG1      -0.6500000000000004
     18 S          -3.3108    1.4632   -4.3384 S.3     1  LIG1      -0.010000000000001563
     19 H          -2.1917   -0.0360   -5.8257 H       1  LIG1       0.18999999999999995
     20 H          -1.8548   -0.5073   -4.1393 H       1  LIG1       0.19999999999999996
     21 H          -0.9996    0.8746   -4.8661 H       1  LIG1       0.19999999999999996
     22 H          -0.3827   -0.9113   -1.1823 H       1  LIG1          0.14
     23 H          -0.4256    0.3513   -2.3981 H       1  LIG1          0.13
     24 H           1.0029    0.9693   -0.4851 H       1  LIG1          0.13
     25 H          -0.3290    2.1067   -0.6595 H       1  LIG1          0.13
     26 H          -2.5891   -0.3507   -0.3475 H       1  LIG1          0.14
     27 H          -2.6825   -0.6283   -2.0765 H       1  LIG1          0.14
     28 H           0.1414    1.5155    1.7191 H       1  LIG1          0.14
     29 H          -1.5099    1.0751    1.2637 H       1  LIG1          0.12
     30 H          -2.6927    2.0712   -0.6385 H       1  LIG1       0.15000000000000002
     31 H          -4.0748    1.2944   -1.4077 H       1  LIG1          0.14
     32 H          -0.2922   -0.6002    2.7016 H       1  LIG1          0.12
     33 H          -0.8756   -1.3144    1.2089 H       1  LIG1          0.12
     34 H          -1.5909    2.3463   -2.8808 H       1  LIG1       0.18999999999999995
     35 H          -3.1301    3.1894   -2.7286 H       1  LIG1       0.18000000000000005
     36 H           1.4130   -1.2158    0.2374 H       1  LIG1           0.12
@<TRIPOS>BOND
     1    19     1    1
     2    21     1    1
     3     1    18    1
     4     1    20    1
     5    18     8    1
     6    34     8    1
     7     8    35    1
     8     8     6    1
     9    23     2    1
    10    27     4    1
    11     6    31    1
    12     6     4    1
    13     6    30    1
    14     2     4    1
    15     2    22    1
    16     2     3    1
    17     4    26    1
    18    25     3    1
    19    24     3    1
    20     3     5    1
    21    36     9    1
    22    13    10    2
    23     5    29    1
    24     5     7    1
    25     5    28    1
    26    33     7    1
    27     9     7    1
    28     9    10    1
    29     9    11    1
    30    14    11   ar
    31     7    32    1
    32    10    12    1
    33    11    15   ar
    34    12    16   ar
    35    12    17   ar
