@<TRIPOS>MOLECULE
UOACBPRDWRDEHJ-KVQBGUIXSA-J	11083975	-2664.680505169358
 43 45 0 0 0
SMALL
MULLIKEN NwChem

@<TRIPOS>ATOM
      1 C          -3.0424    0.9235   -0.9022 C.3     1  LIG1       -0.33999999999999986
      2 C           0.3539   -0.7200   -0.6038 C.3     1  LIG1       -0.07000000000000028
      3 C          -3.7233   -1.5341    1.2044 C.ar    1  LIG1       0.1900000000000004
      4 C          -1.5662    1.0649   -0.4878 C.3     1  LIG1       0.1299999999999999
      5 C          -0.9497   -0.1657   -1.1869 C.3     1  LIG1       0.1299999999999999
      6 C          -3.2605   -0.5922   -1.1091 C.3     1  LIG1       0.28000000000000025
      7 C          -5.7861   -2.0503    1.0618 C.ar    1  LIG1       0.1299999999999999
      8 C          -7.1419   -2.3883    1.2102 C.ar    1  LIG1       0.41000000000000014
      9 C          -5.4511   -1.5470   -0.2093 C.ar    1  LIG1       0.5199999999999996
     10 C          -7.5708   -1.7802   -1.0442 C.ar    1  LIG1       0.5499999999999998
     11 N          -7.6130   -2.8960    2.4466 N.pl3   1  LIG1        -0.79
     12 N          -4.6965   -2.0314    1.9338 N.ar    1  LIG1      -0.5899999999999999
     13 N          -8.0076   -2.2549    0.2241 N.ar    1  LIG1      -0.6500000000000004
     14 N          -6.2442   -1.3888   -1.2588 N.ar    1  LIG1      -0.6799999999999997
     15 N          -4.0957   -1.2265   -0.0945 N.ar    1  LIG1      -0.5099999999999998
     16 O          -1.0620    2.3012   -0.8861 O.3     1  LIG1      -0.7300000000000004
     17 O          -8.4097   -1.7046   -1.9631 O.2     1  LIG1      -0.6899999999999995
     18 O           8.3994    0.9540   -1.0231 O.2     1  LIG1      -0.7100000000000009
     19 O           7.9301    2.9483    0.6020 O.3     1  LIG1      -0.6999999999999993
     20 O           7.2493    0.5598    1.2775 O.3     1  LIG1      -0.7699999999999996
     21 O           2.0257    0.3064    1.6182 O.3     1  LIG1      -0.6899999999999995
     22 O           1.2366    2.4052    0.2937 O.2     1  LIG1      -0.7100000000000009
     23 O           5.1447   -0.5870    0.0525 O.3     1  LIG1      -0.7200000000000006
     24 O           4.6227    0.3977   -2.3311 O.2     1  LIG1      -0.6600000000000001
     25 O           1.4349    0.1318   -0.8994 O.3     1  LIG1      -0.5999999999999996
     26 O          -1.9708   -1.1940   -1.0838 O.3     1  LIG1      -0.5500000000000007
     27 O           5.9536    1.7751   -0.5699 O.3     1  LIG1      -0.6699999999999999
     28 O           3.5061    1.4487   -0.2492 O.3     1  LIG1      -0.6300000000000008
     29 P           7.5340    1.6059    0.0328 P.3     1  LIG1       1.0299999999999994
     30 P           2.0490    1.1062    0.3458 P.3     1  LIG1       1.1300000000000008
     31 P           4.8454    0.5906   -0.8606 P.3     1  LIG1       1.1199999999999992
     32 H          -3.7532    1.3416   -0.1835 H       1  LIG1       0.17000000000000004
     33 H          -3.1639    1.4556   -1.8532 H       1  LIG1       0.16000000000000003
     34 H           0.2465   -0.8743    0.4787 H       1  LIG1       0.16000000000000003
     35 H           0.5403   -1.7030   -1.0647 H       1  LIG1       0.15000000000000002
     36 H          -2.7009   -1.3845    1.5246 H       1  LIG1       0.18999999999999995
     37 H          -1.4629    0.9095    0.6026 H       1  LIG1          0.13
     38 H          -0.7854    0.0945   -2.2451 H       1  LIG1          0.13
     39 H          -3.7732   -0.7998   -2.0572 H       1  LIG1       0.16000000000000003
     40 H          -8.5956   -2.6593    2.5533 H       1  LIG1       0.33999999999999997
     41 H          -7.0535   -2.5392    3.2165 H       1  LIG1          0.35
     42 H          -0.1229    2.3761   -0.4803 H       1  LIG1       0.44999999999999996
     43 H           6.4888   -0.0174    0.9769 H       1  LIG1       0.44999999999999996
@<TRIPOS>BOND
     1    24    31    2
     2    38     5    1
     3    39     6    1
     4    17    10    2
     5    33     1    1
     6    14    10   ar
     7    14     9   ar
     8     5    26    1
     9     5     2    1
    10     5     4    1
    11     6    26    1
    12     6     1    1
    13     6    15    1
    14    35     2    1
    15    10    13   ar
    16    18    29    2
    17     1     4    1
    18     1    32    1
    19    25     2    1
    20    25    30    1
    21    16     4    1
    22    16    42    1
    23    31    27    1
    24    31    28    1
    25    31    23    1
    26     2    34    1
    27    27    29    1
    28     4    37    1
    29    28    30    1
    30     9    15   ar
    31     9     7   ar
    32    15     3   ar
    33    29    19    1
    34    29    20    1
    35    13     8   ar
    36    22    30    2
    37    30    21    1
    38    43    20    1
    39     7     8   ar
    40     7    12   ar
    41     3    36    1
    42     3    12   ar
    43     8    11    1
    44    11    40    1
    45    11    41    1
