@<TRIPOS>MOLECULE
UOKVQQMBGVMXPU-CJPDYEHRSA-N	6045306	-1706.0217465986984
 46 48 0 0 0
SMALL
MULLIKEN NwChem

@<TRIPOS>ATOM
      1 C          -1.2406    0.1988   -2.8105 C.3     1  LIG1      -0.6299999999999999
      2 C          -2.8109    2.9772   -2.4523 C.3     1  LIG1       -0.34999999999999964
      3 C          -1.4525    3.1176   -3.1474 C.3     1  LIG1      -0.45999999999999996
      4 C           0.7058    1.9401   -1.4354 C.3     1  LIG1       -0.4900000000000002
      5 C           0.3261   -5.0664    0.6422 C.ar    1  LIG1       0.16000000000000014
      6 C           2.6695   -1.5007    1.5007 C.ar    1  LIG1       0.21999999999999975
      7 C          -2.7678    2.6452   -0.9541 C.2     1  LIG1       0.3799999999999999
      8 C           0.1817    1.1988   -0.2352 C.3     1  LIG1       0.11000000000000032
      9 C           2.4688   -3.5976    1.2263 C.ar    1  LIG1       0.17999999999999972
     10 C           0.9103    1.5931    1.0764 C.3     1  LIG1       0.08999999999999986
     11 C           0.3064    0.4943    1.9886 C.3     1  LIG1       0.05999999999999961
     12 C           2.5869   -4.9973    1.1001 C.ar    1  LIG1       0.4800000000000004
     13 C           1.1890   -3.0718    1.0296 C.ar    1  LIG1          0.54
     14 C           0.2849   -0.7330    1.0213 C.3     1  LIG1          0.25
     15 C          -1.8956    3.5727   -0.0432 C.2     1  LIG1       0.5300000000000002
     16 N           3.7780   -5.6374    1.2330 N.pl3   1  LIG1      -0.7800000000000002
     17 N           1.4890   -5.7182    0.8091 N.ar    1  LIG1      -0.5499999999999998
     18 N           0.0784   -3.7546    0.7283 N.ar    1  LIG1        -0.54
     19 N           3.3836   -2.5985    1.5214 N.ar    1  LIG1      -0.5700000000000003
     20 N           1.3264   -1.7075    1.2223 N.ar    1  LIG1      -0.5099999999999998
     21 O          -3.3071    1.6353   -0.5449 O.2     1  LIG1      -0.47000000000000064
     22 O           0.8408    2.9161    1.4806 O.3     1  LIG1      -0.6899999999999995
     23 O          -0.9935    0.7787    2.4416 O.3     1  LIG1      -0.7100000000000009
     24 O          -1.7885    3.2032    1.1588 O.co2   1  LIG1      -0.6199999999999992
     25 O          -1.3137    4.4991   -0.6439 O.co2   1  LIG1      -0.5800000000000001
     26 O           0.4199   -0.2015   -0.3278 O.3     1  LIG1      -0.5299999999999994
     27 S          -0.2365    1.7118   -3.0325 S.3     1  LIG1      0.5500000000000007
     28 H          -1.6749   -0.0300   -3.7860 H       1  LIG1          0.25
     29 H          -2.0146    0.3486   -2.0571 H       1  LIG1          0.24
     30 H          -0.5549   -0.5853   -2.4868 H       1  LIG1          0.26
     31 H          -3.2843    3.9604   -2.5721 H       1  LIG1       0.21999999999999997
     32 H          -3.4393    2.2297   -2.9450 H       1  LIG1       0.19999999999999996
     33 H          -0.9145    3.9682   -2.7238 H       1  LIG1          0.26
     34 H          -1.5753    3.2427   -4.2273 H       1  LIG1          0.25
     35 H           1.7207    1.6203   -1.6864 H       1  LIG1          0.26
     36 H           0.6776    3.0157   -1.2310 H       1  LIG1          0.25
     37 H          -0.5292   -5.6963    0.4068 H       1  LIG1       0.17000000000000004
     38 H           3.0553   -0.5083    1.6909 H       1  LIG1       0.21999999999999997
     39 H          -0.8842    1.3790   -0.1075 H       1  LIG1       0.16000000000000003
     40 H           1.9742    1.3635    0.9222 H       1  LIG1       0.18000000000000005
     41 H           0.9358    0.2879    2.8611 H       1  LIG1       0.18000000000000005
     42 H          -0.6681   -1.2579    1.1115 H       1  LIG1       0.18999999999999995
     43 H           4.5493   -5.1354    1.6482 H       1  LIG1          0.38
     44 H           3.7582   -6.6432    1.3209 H       1  LIG1          0.37
     45 H          -0.1085    3.2035    1.5274 H       1  LIG1       0.43000000000000005
     46 H          -1.3948    1.5447    1.9741 H       1  LIG1       0.43999999999999995
@<TRIPOS>BOND
     1    34     3    1
     2    28     1    1
     3     3    27    1
     4     3    33    1
     5     3     2    1
     6    27     1    1
     7    27     4    1
     8    32     2    1
     9     1    30    1
    10     1    29    1
    11    31     2    1
    12     2     7    1
    13    35     4    1
    14     4    36    1
    15     4     8    1
    16     7    21    2
    17     7    15    1
    18    25    15   ar
    19    26     8    1
    20    26    14    1
    21     8    39    1
    22     8    10    1
    23    15    24   ar
    24    37     5    1
    25     5    18   ar
    26     5    17   ar
    27    18    13   ar
    28    17    12   ar
    29    40    10    1
    30    14    42    1
    31    14    20    1
    32    14    11    1
    33    13    20   ar
    34    13     9   ar
    35    10    22    1
    36    10    11    1
    37    12     9   ar
    38    12    16    1
    39    20     6   ar
    40     9    19   ar
    41    16    44    1
    42    16    43    1
    43    22    45    1
    44     6    19   ar
    45     6    38    1
    46    46    23    1
    47    11    23    1
    48    11    41    1
