@<TRIPOS>MOLECULE
UORVCLMRJXCDCP-UHFFFAOYSA-M	6045307	-265.4324172540273
 6 5 0 0 0
SMALL
MULLIKEN NwChem

@<TRIPOS>ATOM
      1 C           2.1523   -0.0000    0.0000 C.1     1  LIG1            -0.54
      2 C           0.9355   -0.0000    0.0000 C.1     1  LIG1       0.16999999999999993
      3 C          -0.5891   -0.0000    0.0000 C.2     1  LIG1       0.4299999999999997
      4 O          -1.1019   -1.1342    0.1293 O.co2   1  LIG1      -0.6400000000000006
      5 O          -1.1019    1.1342   -0.1293 O.co2   1  LIG1      -0.6400000000000006
      6 H           3.2181    0.0000   -0.0000 H       1  LIG1       0.21999999999999997
@<TRIPOS>BOND
     1     5     3   ar
     2     6     1    1
     3     2     1    3
     4     2     3    1
     5     3     4   ar
