@<TRIPOS>MOLECULE
UPEGTKGKNWDIAN-NUESBDPTSA-N	6045308	-1245.72908880708
 78 81 0 0 0
SMALL
MULLIKEN NwChem

@<TRIPOS>ATOM
      1 C          -0.8431    3.7064   -6.3399 C.3     1  LIG1      -0.45999999999999996
      2 C          -0.1350    5.2828   -4.4943 C.3     1  LIG1      -0.45999999999999996
      3 C          -3.5582    1.9590   -1.6372 C.3     1  LIG1      -0.46999999999999975
      4 C          -0.3763    1.2943   -0.2633 C.3     1  LIG1      -0.4900000000000002
      5 C          -0.0369   -2.9393    3.5631 C.3     1  LIG1         -0.5
      6 C          -3.2872    2.9164   -4.5649 C.3     1  LIG1      -0.28000000000000025
      7 C          -2.3729    4.1313   -4.3301 C.3     1  LIG1      -0.2599999999999998
      8 C          -2.7660    1.5758   -4.0125 C.3     1  LIG1      -0.2699999999999996
      9 C           1.7511   -2.3772    0.1869 C.3     1  LIG1      -0.34999999999999964
     10 C           2.3306   -2.9734    1.4711 C.3     1  LIG1      -0.28000000000000025
     11 C          -0.5068   -0.1646   -3.0279 C.3     1  LIG1      -0.3099999999999996
     12 C           0.5149   -0.9213   -2.1362 C.3     1  LIG1      -0.2999999999999998
     13 C          -1.4252   -0.6580    1.7510 C.3     1  LIG1      -0.3600000000000003
     14 C           1.5144   -0.6229    5.1252 C.3     1  LIG1      -0.29000000000000004
     15 C          -2.1720   -0.3507    0.4327 C.3     1  LIG1      -0.29000000000000004
     16 C           0.5790   -0.5060    3.9092 C.3     1  LIG1      -0.3099999999999996
     17 C           3.0665   -3.3795    4.6777 C.3     1  LIG1       -0.07000000000000028
     18 C          -0.9232    4.0065   -4.8337 C.3     1  LIG1      -0.07000000000000028
     19 C          -2.3638    1.5696   -2.5189 C.3     1  LIG1      -0.08999999999999986
     20 C           0.4510   -1.6305    0.3996 C.2     1  LIG1      0.08999999999999986
     21 C           3.1178   -2.1032    3.8140 C.3     1  LIG1       -0.11000000000000032
     22 C          -1.7378    0.2099   -2.1264 C.3     1  LIG1      -0.08000000000000007
     23 C          -0.2821   -1.2103   -0.8564 C.3     1  LIG1      -0.16999999999999993
     24 C           2.1605   -1.9512    2.6026 C.3     1  LIG1      -0.15000000000000036
     25 C          -0.0774   -1.3635    1.6116 C.2     1  LIG1      0.08000000000000007
     26 C           2.9801   -0.8588    4.7280 C.3     1  LIG1       0.1200000000000001
     27 C          -1.1809    0.0411   -0.6735 C.3     1  LIG1      0.08999999999999986
     28 C           0.6541   -1.7110    2.9240 C.3     1  LIG1      0.05999999999999961
     29 O           3.0585   -4.6002    3.9482 O.3     1  LIG1      -0.6699999999999999
     30 O           3.5550    0.3082    4.1317 O.3     1  LIG1      -0.6899999999999995
     31 H          -1.3180    4.5065   -6.9211 H       1  LIG1          0.14
     32 H          -1.3375    2.7663   -6.5994 H       1  LIG1       0.15000000000000002
     33 H           0.2037    3.6314   -6.6658 H       1  LIG1          0.14
     34 H          -0.5383    6.1475   -5.0362 H       1  LIG1          0.14
     35 H          -0.1838    5.5094   -3.4242 H       1  LIG1          0.14
     36 H           0.9203    5.1820   -4.7722 H       1  LIG1          0.14
     37 H          -4.3492    1.2050   -1.6961 H       1  LIG1          0.14
     38 H          -3.2761    2.0653   -0.5882 H       1  LIG1       0.16000000000000003
     39 H          -3.9887    2.9146   -1.9554 H       1  LIG1       0.15000000000000002
     40 H          -1.0434    2.1539   -0.1428 H       1  LIG1       0.15000000000000002
     41 H           0.1506    1.1526    0.6844 H       1  LIG1       0.15000000000000002
     42 H           0.3729    1.5648   -1.0137 H       1  LIG1       0.15000000000000002
     43 H           0.0217   -3.8177    2.9120 H       1  LIG1       0.15000000000000002
     44 H           0.3909   -3.2007    4.5354 H       1  LIG1       0.16000000000000003
     45 H          -1.1009   -2.7380    3.7317 H       1  LIG1       0.16000000000000003
     46 H          -4.2724    3.1398   -4.1320 H       1  LIG1          0.13
     47 H          -3.4670    2.7900   -5.6406 H       1  LIG1          0.13
     48 H          -2.3452    4.3599   -3.2566 H       1  LIG1          0.14
     49 H          -2.8339    5.0097   -4.8067 H       1  LIG1          0.12
     50 H          -3.5327    0.8065   -4.1748 H       1  LIG1          0.12
     51 H          -1.9042    1.2715   -4.6152 H       1  LIG1       0.15000000000000002
     52 H           1.6008   -3.1596   -0.5727 H       1  LIG1       0.15000000000000002
     53 H           2.4842   -1.6852   -0.2601 H       1  LIG1       0.15000000000000002
     54 H           3.3868   -3.2309    1.3421 H       1  LIG1          0.13
     55 H           1.8191   -3.9135    1.7009 H       1  LIG1          0.14
     56 H          -0.0497    0.7410   -3.4458 H       1  LIG1       0.15000000000000002
     57 H          -0.8220   -0.7781   -3.8769 H       1  LIG1          0.14
     58 H           1.3866   -0.2935   -1.9198 H       1  LIG1          0.14
     59 H           0.8935   -1.8347   -2.6132 H       1  LIG1          0.13
     60 H          -1.2730    0.2885    2.2824 H       1  LIG1       0.15000000000000002
     61 H          -2.0809   -1.2458    2.4042 H       1  LIG1       0.15000000000000002
     62 H           1.4584    0.2972    5.7176 H       1  LIG1          0.14
     63 H           1.1769   -1.4371    5.7776 H       1  LIG1       0.15000000000000002
     64 H          -2.9158    0.4269    0.6306 H       1  LIG1          0.14
     65 H          -2.7275   -1.2370    0.1002 H       1  LIG1          0.13
     66 H          -0.4467   -0.3684    4.2656 H       1  LIG1       0.15000000000000002
     67 H           0.8300    0.4126    3.3556 H       1  LIG1          0.14
     68 H           3.9788   -3.4060    5.2845 H       1  LIG1       0.15000000000000002
     69 H           2.2267   -3.3471    5.3884 H       1  LIG1       0.15000000000000002
     70 H          -0.4492    3.1693   -4.3039 H       1  LIG1          0.14
     71 H          -1.5867    2.3332   -2.3860 H       1  LIG1          0.13
     72 H           4.1294   -2.0693    3.3878 H       1  LIG1          0.13
     73 H          -2.5147   -0.5592   -2.2625 H       1  LIG1       0.10999999999999999
     74 H          -0.9684   -2.0355   -1.1169 H       1  LIG1          0.13
     75 H           2.4875   -0.9990    2.1486 H       1  LIG1          0.12
     76 H           3.5792   -1.0071    5.6355 H       1  LIG1          0.14
     77 H           2.1623   -4.7241    3.6050 H       1  LIG1       0.43000000000000005
     78 H           3.0620    0.5079    3.3230 H       1  LIG1       0.42000000000000004
@<TRIPOS>BOND
     1    31     1    1
     2    33     1    1
     3    32     1    1
     4     1    18    1
     5    47     6    1
     6    34     2    1
     7    18     2    1
     8    18     7    1
     9    18    70    1
    10    49     7    1
    11    36     2    1
    12    51     8    1
    13     6     7    1
    14     6    46    1
    15     6     8    1
    16     2    35    1
    17     7    48    1
    18    50     8    1
    19     8    19    1
    20    57    11    1
    21    56    11    1
    22    11    12    1
    23    11    22    1
    24    59    12    1
    25    19    71    1
    26    19    22    1
    27    19     3    1
    28    73    22    1
    29    12    58    1
    30    12    23    1
    31    22    27    1
    32    39     3    1
    33    37     3    1
    34     3    38    1
    35    74    23    1
    36    42     4    1
    37    23    27    1
    38    23    20    1
    39    27     4    1
    40    27    15    1
    41    52     9    1
    42     4    40    1
    43     4    41    1
    44    53     9    1
    45    65    15    1
    46     9    20    1
    47     9    10    1
    48    20    25    2
    49    15    64    1
    50    15    13    1
    51    54    10    1
    52    10    55    1
    53    10    24    1
    54    25    13    1
    55    25    28    1
    56    13    60    1
    57    13    61    1
    58    75    24    1
    59    24    28    1
    60    24    21    1
    61    43     5    1
    62    28     5    1
    63    28    16    1
    64    78    30    1
    65    67    16    1
    66    72    21    1
    67     5    45    1
    68     5    44    1
    69    77    29    1
    70    21    17    1
    71    21    26    1
    72    16    66    1
    73    16    14    1
    74    29    17    1
    75    30    26    1
    76    17    68    1
    77    17    69    1
    78    26    14    1
    79    26    76    1
    80    14    62    1
    81    14    63    1
