@<TRIPOS>MOLECULE
UPHPWXPNZIOZJL-UOTPTPDRSA-A	11083972	-4654.524791617987
 46 40 0 0 0
SMALL
MULLIKEN NwChem

@<TRIPOS>ATOM
      1 C         -14.4436   -0.4096   12.6998 C.3     1  LIG1       0.07000000000000028
      2 C         -14.1772   -1.7813   12.1408 C.2     1  LIG1       0.23000000000000043
      3 C         -13.6922    0.6667   11.8484 C.2     1  LIG1       0.28000000000000025
      4 C           3.1166   -0.4948  -13.1332 C.2     2  LIG2       0.1900000000000004
      5 C           4.1740    1.7991  -12.9019 C.3     2  LIG2       0.20999999999999996
      6 C           3.3791    0.7176  -12.4576 C.2     2  LIG2      -0.2699999999999996
      7 O         -12.3611    1.2697   15.1841 O.3     1  LIG1      -0.7400000000000002
      8 O         -13.9790    1.9684   13.2407 O.2     1  LIG1      -0.7200000000000006
      9 O         -14.9187    1.4717   15.6154 O.3     1  LIG1      -0.7300000000000004
     10 O         -12.2461  -11.1014    9.6503 O.2     3  LIG3      -0.6500000000000004
     11 O         -14.7695  -11.8218    9.7726 O.3     3  LIG3      -0.6500000000000004
     12 O         -13.7046  -11.1919    7.4548 O.3     3  LIG3      -0.6600000000000001
     13 O         -29.0998   25.5479  -20.9071 O.3     4  LIG4      -0.8200000000000003
     14 O         -29.4475   22.9924  -21.3114 O.3     4  LIG4      -0.7899999999999991
     15 O         -31.0334   24.2417  -19.6555 O.3     4  LIG4      -0.8000000000000007
     16 O           2.3129   -3.2869  -13.6452 O.3     2  LIG2      -0.7300000000000004
     17 O           4.1254   -3.2724  -15.5239 O.3     2  LIG2      -0.7200000000000006
     18 O           1.7835   -2.2001  -15.9658 O.2     2  LIG2      -0.7200000000000006
     19 O           6.3199    4.6690  -11.6891 O.3     2  LIG2      -0.7100000000000009
     20 O           6.1834    3.6851  -14.0955 O.2     2  LIG2      -0.7400000000000002
     21 O           4.3825    5.4130  -13.2764 O.3     2  LIG2      -0.7300000000000004
     22 O          40.6156  -16.6702   -7.5554 O.2     5  LIG5      -0.9000000000000004
     23 O          41.0760  -15.8712   -5.1134 O.3     5  LIG5      -0.9100000000000001
     24 O          41.3198  -18.3665   -5.7413 O.3     5  LIG5      -0.9000000000000004
     25 O          21.2071    6.8337   30.2919 O.3     6  LIG6      -0.7899999999999991
     26 O          20.5667    5.5346   32.4905 O.3     6  LIG6      -0.7899999999999991
     27 O         -13.9906   -0.3906   14.0245 O.3     1  LIG1      -0.6400000000000006
     28 O         -14.9393   -2.4428   11.4400 O.2     1  LIG1      -0.46000000000000085
     29 O         -14.1248    1.0191   10.7341 O.2     1  LIG1      -0.6099999999999994
     30 O           3.5236   -0.8619  -14.2800 O.2     2  LIG2      -0.5700000000000003
     31 O           4.3314    2.8679  -12.2311 O.3     2  LIG2      -0.5600000000000005
     32 O          21.6754    4.2567   30.4760 O.3     6  LIG6      -0.7799999999999994
     33 O          38.9630  -17.2675   -5.6612 O.3     5  LIG5      -0.9100000000000001
     34 P         -13.7798    1.2288   14.6378 P.3     1  LIG1       0.9600000000000009
     35 P         -13.6260  -11.1668    8.9896 P.3     3  LIG3       0.9600000000000009
     36 P         -29.6115   24.1682  -20.3193 P.3     4  LIG4       0.33000000000000007
     37 P           2.8108   -2.7393  -14.9803 P.3     2  LIG2       0.9600000000000009
     38 P           5.5100    4.4346  -12.9415 P.3     2  LIG2       0.9600000000000009
     39 P          40.4962  -17.0414   -6.0188 P.3     5  LIG5       0.6300000000000008
     40 P          20.8080    5.4661   30.9383 P.3     6  LIG6       0.4299999999999997
     41 H         -15.5163   -0.1893   12.5794 H       1  LIG1          0.13
     42 H         -13.1679   -2.1798   12.4095 H       1  LIG1          0.14
     43 H         -12.6006    0.6460   12.0561 H       1  LIG1       0.09999999999999998
     44 H           2.4764   -1.2176  -12.6013 H       2  LIG2          0.14
     45 H           4.6850    1.7223  -13.8684 H       2  LIG2       0.15000000000000002
     46 H           2.9099    0.8315  -11.4785 H       2  LIG2           0.14
@<TRIPOS>BOND
     1    14    36    1
     2    13    36    1
     3    36    15    1
     4    18    37    2
     5    17    37    1
     6    37    30    1
     7    37    16    1
     8    30     4    1
     9    20    38    2
    10    45     5    1
    11    21    38    1
    12     4    44    1
    13     4     6    2
    14    38    31    1
    15    38    19    1
    16     5     6    1
    17     5    31    1
    18     6    46    1
    19    22    39    2
    20    39    24    1
    21    39    33    1
    22    39    23    1
    23    12    35    1
    24    35    10    2
    25    35    11    1
    26    29     3    2
    27    28     2    2
    28     3    43    1
    29     3     1    1
    30     2    42    1
    31     2     1    1
    32    41     1    1
    33     1    27    1
    34     8    34    2
    35    27    34    1
    36    34     7    1
    37    34     9    1
    38    25    40    1
    39    32    40    1
    40    40    26    1
