@<TRIPOS>MOLECULE
UPHPWXPNZIOZJL-KXXVROSKSA-A	11083974	-4654.5460160010825
 46 42 0 0 0
SMALL
MULLIKEN NwChem

@<TRIPOS>ATOM
      1 C          12.9382    7.3584    0.3965 C.3     1  LIG1       0.11000000000000032
      2 C          11.3739    7.4688    0.5849 C.3     1  LIG1       0.09999999999999964
      3 C          13.4535    6.5072    1.5761 C.2     1  LIG1       0.2699999999999996
      4 C          10.6313    8.0982   -0.6242 C.3     1  LIG1       0.1200000000000001
      5 C           8.2441    7.3632   -1.3103 C.2     1  LIG1       0.2400000000000002
      6 C           9.0637    8.1761   -0.3585 C.3     1  LIG1       -0.03000000000000025
      7 O          15.2400    7.9529   -2.2863 O.2     1  LIG1      -0.7799999999999994
      8 O          15.3134    5.4282   -1.8070 O.3     1  LIG1      -0.7799999999999994
      9 O          15.7434    7.1350    0.1129 O.3     1  LIG1      -0.8000000000000007
     10 O          10.1639    8.5820    4.1300 O.3     1  LIG1      -0.7699999999999996
     11 O          10.8167    6.1578    3.4624 O.3     1  LIG1      -0.7899999999999991
     12 O           8.7354    7.2627    2.4070 O.2     1  LIG1      -0.7699999999999996
     13 O          18.8114  -43.5268    0.2947 O.3     2  LIG2      -0.7699999999999996
     14 O          16.5728  -44.5369    1.2592 O.3     2  LIG2      -0.7699999999999996
     15 O          16.6410  -43.5980   -1.2003 O.3     2  LIG2      -0.7699999999999996
     16 O           8.6448    9.5444   -0.4632 O.3     1  LIG1      -0.6099999999999994
     17 O           9.8360   11.7721   -1.1060 O.3     1  LIG1      -0.6699999999999999
     18 O           9.3721    9.9564   -2.9185 O.2     1  LIG1      -0.7100000000000009
     19 O         -14.0881   -8.3289  -27.5256 O.3     3  LIG3      -0.7300000000000004
     20 O         -15.0547   -5.9245  -27.0443 O.3     3  LIG3      -0.7300000000000004
     21 O         -13.8216   -7.2582  -25.1362 O.2     3  LIG3      -0.7200000000000006
     22 O         -48.4651    9.7590   -7.7577 O.2     4  LIG4      -0.9000000000000004
     23 O         -48.7606   11.5115   -5.8826 O.3     4  LIG4      -0.9000000000000004
     24 O         -49.8150    9.1774   -5.5886 O.3     4  LIG4      -0.9100000000000001
     25 O         -23.0748  -18.8809   34.7055 O.3     5  LIG5      -0.7599999999999998
     26 O         -22.5768  -17.9761   32.2721 O.3     5  LIG5      -0.7699999999999996
     27 O          13.3286    6.8254   -0.8477 O.3     1  LIG1      -0.6600000000000001
     28 O          11.1162    8.1624    1.7899 O.3     1  LIG1      -0.6600000000000001
     29 O          13.5787    5.2979    1.5791 O.2     1  LIG1      -0.4900000000000002
     30 O          11.0205    9.4506   -0.9369 O.3     1  LIG1      -0.5999999999999996
     31 O           8.3762    6.1792   -1.6037 O.2     1  LIG1      -0.47000000000000064
     32 O         -21.1113  -17.1738   34.3104 O.3     5  LIG5      -0.7599999999999998
     33 O         -47.2377    9.4300   -5.5088 O.3     4  LIG4      -0.9100000000000001
     34 P          15.0544    6.8368   -1.2380 P.3     1  LIG1       0.8699999999999992
     35 P          10.1291    7.4715    3.0688 P.3     1  LIG1       0.9299999999999997
     36 P          17.2337  -43.5233    0.2527 P.3     2  LIG2       0.5399999999999991
     37 P           9.7227   10.3241   -1.4897 P.3     1  LIG1       1.0399999999999991
     38 P         -14.0130   -7.0258  -26.6657 P.3     3  LIG3       0.6799999999999997
     39 P         -48.5682    9.9723   -6.1856 P.3     4  LIG4       0.6199999999999992
     40 P         -22.0064  -18.3080   33.7014 P.3     5  LIG5       0.5600000000000005
     41 H          13.3258    8.3751    0.5481 H       1  LIG1          0.12
     42 H          10.9819    6.4390    0.6274 H       1  LIG1          0.13
     43 H          13.6668    7.1001    2.4970 H       1  LIG1          0.12
     44 H          10.8433    7.4679   -1.4936 H       1  LIG1       0.16000000000000003
     45 H           7.3847    7.9550   -1.7296 H       1  LIG1          0.13
     46 H           8.8521    7.8242    0.6925 H       1  LIG1           0.27
@<TRIPOS>BOND
     1    19    38    1
     2    20    38    1
     3    38    21    2
     4    22    39    2
     5    39    23    1
     6    39    24    1
     7    39    33    1
     8    18    37    2
     9     7    34    2
    10     8    34    1
    11    45     5    1
    12    31     5    2
    13    44     4    1
    14    37    17    1
    15    37    30    1
    16    37    16    1
    17     5     6    1
    18    34    27    1
    19    34     9    1
    20    15    36    1
    21    30     4    1
    22    27     1    1
    23     4     6    1
    24     4     2    1
    25    16     6    1
    26     6    46    1
    27    36    13    1
    28    36    14    1
    29     1    41    1
    30     1     2    1
    31     1     3    1
    32     2    42    1
    33     2    28    1
    34     3    29    2
    35     3    43    1
    36    28    35    1
    37    12    35    2
    38    35    11    1
    39    35    10    1
    40    26    40    1
    41    40    32    1
    42    40    25    1
