@<TRIPOS>MOLECULE
UPHPWXPNZIOZJL-PTQMNWPWSA-B	11083973	-4655.081279360205
 47 42 0 0 0
SMALL
MULLIKEN NwChem

@<TRIPOS>ATOM
      1 C         -15.7008    0.3616    9.3443 C.3     1  LIG1       0.040000000000000036
      2 C         -14.6563    0.4478    8.2908 C.2     1  LIG1       0.23000000000000043
      3 C         -16.0521    1.8509    9.9250 C.3     1  LIG1       0.33999999999999986
      4 C           3.0882  -10.4472    0.8953 C.2     2  LIG2       0.16000000000000014
      5 C           4.2362   -8.2793    0.4056 C.2     2  LIG2       0.20000000000000018
      6 C           3.0844   -9.0553    0.7155 C.2     2  LIG2       -0.28000000000000025
      7 O         -18.8959   -0.7137   10.3940 O.3     1  LIG1      -0.7100000000000009
      8 O         -19.1275    1.0634    8.4913 O.2     1  LIG1      -0.7200000000000006
      9 O         -17.4947    1.4659   10.5089 O.3     1  LIG1      -0.6600000000000001
     10 O         -27.3939  -21.8966  -18.9262 O.3     3  LIG3      -0.7599999999999998
     11 O         -25.8262  -22.6932  -16.9636 O.2     3  LIG3      -0.7599999999999998
     12 O         -24.7753  -21.5841  -19.1087 O.3     3  LIG3      -0.7599999999999998
     13 O           8.6383   18.1927   26.8362 O.3     4  LIG4      -0.7400000000000002
     14 O           6.7988   18.6923   25.0227 O.2     4  LIG4      -0.7400000000000002
     15 O           6.1011   18.2865   27.5281 O.3     4  LIG4      -0.7400000000000002
     16 O           4.8873  -13.4279    2.1668 O.3     2  LIG2      -0.7200000000000006
     17 O           4.0197  -13.7526   -0.2728 O.2     2  LIG2      -0.7200000000000006
     18 O           2.3453  -13.1585    1.6342 O.3     2  LIG2      -0.7300000000000004
     19 O          -7.7455   13.2465  -22.4916 O.2     5  LIG5      -0.7200000000000006
     20 O          -8.5774   15.6569  -21.8247 O.3     5  LIG5      -0.7300000000000004
     21 O         -10.3116   13.8061  -22.5164 O.3     5  LIG5      -0.7200000000000006
     22 O          29.2804    5.8028   -6.6357 O.2     6  LIG6      -0.7599999999999998
     23 O          29.8994    8.3158   -6.5338 O.3     6  LIG6      -0.7699999999999996
     24 O          27.5889    7.5175   -5.6493 O.3     6  LIG6      -0.7899999999999991
     25 O          25.9708    8.6820   -7.3185 O.3     6  LIG6      -0.8000000000000007
     26 O          26.6608    8.9986   -9.7919 O.2     6  LIG6      -0.7400000000000002
     27 O         -16.8728   -0.2071    8.7924 O.3     1  LIG1      -0.6400000000000006
     28 O         -13.4365    0.3909    8.4405 O.2     1  LIG1      -0.4800000000000004
     29 O         -15.2552    2.3501   10.7705 O.3     1  LIG1      -0.7100000000000009
     30 O           4.0897  -11.2287    0.7812 O.2     2  LIG2      -0.5899999999999999
     31 O           4.3045   -7.0392    0.2475 O.2     2  LIG2      -0.5899999999999999
     32 O          25.6949    6.7192   -9.0099 O.3     6  LIG6      -0.7400000000000002
     33 O          28.0600    7.5015   -8.2056 O.3     6  LIG6      -0.7200000000000006
     34 P         -18.2880    0.4009    9.5659 P.3     1  LIG1           1.0
     35 P         -26.0198  -21.7666  -18.1935 P.3     3  LIG3           0.5
     36 P           7.1532   18.0955   26.4055 P.3     4  LIG4       0.5299999999999994
     37 P           3.7852  -13.2438    1.1376 P.3     2  LIG2       0.9399999999999995
     38 P          -8.8957   14.1514  -22.0134 P.3     5  LIG5       0.6199999999999992
     39 P          28.7861    7.2568   -6.6207 P.3     6  LIG6       0.9199999999999999
     40 P          26.5476    7.9463   -8.6869 P.3     6  LIG6       0.9600000000000009
     41 H         -15.3193   -0.1846   10.2204 H       1  LIG1          0.13
     42 H         -15.0912    0.6354    7.2757 H       1  LIG1          0.12
     43 H         -16.3496    2.4699    9.0338 H       1  LIG1       0.050000000000000044
     44 H           2.1354  -10.9309    1.1665 H       2  LIG2          0.14
     45 H           5.1662   -8.8870    0.3075 H       2  LIG2       0.07999999999999996
     46 H           2.1373   -8.5264    0.8354 H       2  LIG2          0.12
     47 H          26.5124    8.2521   -6.5549 H       6  LIG6       0.43999999999999995
@<TRIPOS>BOND
     1    21    38    1
     2    19    38    2
     3    38    20    1
     4    12    35    1
     5    10    35    1
     6    35    11    2
     7    26    40    2
     8    32    40    1
     9    40    33    1
    10    40    25    1
    11    33    39    1
    12    25    47    1
    13    22    39    2
    14    39    23    1
    15    39    24    1
    16    17    37    2
    17    31     5    2
    18    45     5    1
    19     5     6    1
    20     6    46    1
    21     6     4    2
    22    30     4    1
    23    30    37    1
    24     4    44    1
    25    37    18    1
    26    37    16    1
    27    42     2    1
    28     2    28    2
    29     2     1    1
    30     8    34    2
    31    27     1    1
    32    27    34    1
    33    43     3    1
    34     1     3    1
    35     1    41    1
    36    34     7    1
    37    34     9    1
    38     3     9    1
    39     3    29    1
    40    14    36    2
    41    36    13    1
    42    36    15    1
