@<TRIPOS>MOLECULE
UPWGQKDVAURUGE-KTKRTIGZSA-N	6045312	-1124.7284629840772
 65 64 0 0 0
SMALL
MULLIKEN NwChem

@<TRIPOS>ATOM
      1 C           4.7183   -7.7683   -5.2148 C.3     1  LIG1      -0.45999999999999996
      2 C           5.2739   -6.8568   -4.1148 C.3     1  LIG1      -0.2599999999999998
      3 C           5.2291   -5.3597   -4.4647 C.3     1  LIG1      -0.2599999999999998
      4 C           3.8264   -4.7963   -4.7550 C.3     1  LIG1      -0.2699999999999996
      5 C           2.8018   -4.9952   -3.6247 C.3     1  LIG1      -0.2699999999999996
      6 C           3.2112   -4.3993   -2.2661 C.3     1  LIG1      -0.2699999999999996
      7 C           3.5380   -2.8964   -2.2922 C.3     1  LIG1      -0.2599999999999998
      8 C           2.3989   -2.0012   -2.8302 C.3     1  LIG1      -0.3200000000000003
      9 C           1.1139   -2.1513   -2.0559 C.2     1  LIG1      -0.1200000000000001
     10 C           0.6487   -1.3296   -1.1074 C.2     1  LIG1      -0.1299999999999999
     11 C           1.2826   -0.0451   -0.6405 C.3     1  LIG1      -0.3200000000000003
     12 C           0.5433    1.2172   -1.1374 C.3     1  LIG1      -0.2599999999999998
     13 C          -0.9236    1.3310   -0.6893 C.3     1  LIG1      -0.2699999999999996
     14 C          -1.1406    1.3031    0.8339 C.3     1  LIG1      -0.2699999999999996
     15 C          -0.3366    2.3512    1.6238 C.3     1  LIG1      -0.29000000000000004
     16 C          -0.5382    3.8082    1.1749 C.3     1  LIG1      -0.28000000000000025
     17 C          -2.0050    4.2901    1.2141 C.3     1  LIG1       -0.34999999999999964
     18 C          -3.1950    2.6699    5.1821 C.3     1  LIG1       -0.07000000000000028
     19 C          -5.1899    4.0191    4.2876 C.3     1  LIG1       -0.04999999999999982
     20 C          -4.1518    2.9359    4.0099 C.3     1  LIG1       0.05999999999999961
     21 C          -2.5488    4.1845    2.6213 C.2     1  LIG1       0.6600000000000001
     22 O          -2.8709    3.8004    5.9565 O.3     1  LIG1      -0.6799999999999997
     23 O          -6.1841    4.0686    3.2736 O.3     1  LIG1      -0.6699999999999999
     24 O          -2.1311    4.8617    3.5452 O.2     1  LIG1      -0.5399999999999991
     25 O          -3.4885    3.2280    2.7248 O.3     1  LIG1      -0.4800000000000004
     26 H           3.6568   -7.5722   -5.4044 H       1  LIG1       0.15000000000000002
     27 H           4.8135   -8.8260   -4.9430 H       1  LIG1          0.14
     28 H           5.2560   -7.6161   -6.1592 H       1  LIG1          0.14
     29 H           4.7253   -7.0344   -3.1803 H       1  LIG1          0.14
     30 H           6.3166   -7.1339   -3.9090 H       1  LIG1          0.13
     31 H           5.6858   -4.7912   -3.6434 H       1  LIG1          0.14
     32 H           5.8658   -5.1806   -5.3428 H       1  LIG1          0.13
     33 H           3.9224   -3.7257   -4.9781 H       1  LIG1          0.14
     34 H           3.4302   -5.2531   -5.6702 H       1  LIG1          0.13
     35 H           1.8437   -4.5611   -3.9408 H       1  LIG1          0.14
     36 H           2.6091   -6.0675   -3.4893 H       1  LIG1          0.14
     37 H           2.4013   -4.5799   -1.5476 H       1  LIG1          0.13
     38 H           4.0833   -4.9410   -1.8776 H       1  LIG1          0.14
     39 H           3.7873   -2.5697   -1.2745 H       1  LIG1          0.13
     40 H           4.4340   -2.7234   -2.9018 H       1  LIG1          0.14
     41 H           2.7372   -0.9590   -2.8261 H       1  LIG1       0.15000000000000002
     42 H           2.2122   -2.2508   -3.8839 H       1  LIG1       0.15000000000000002
     43 H           0.5324   -3.0451   -2.2835 H       1  LIG1          0.13
     44 H          -0.2981   -1.5873   -0.6312 H       1  LIG1          0.13
     45 H           1.3144   -0.0378    0.4579 H       1  LIG1       0.15000000000000002
     46 H           2.3252    0.0114   -0.9705 H       1  LIG1       0.15000000000000002
     47 H           1.1019    2.1009   -0.8003 H       1  LIG1          0.14
     48 H           0.5780    1.2293   -2.2346 H       1  LIG1          0.13
     49 H          -1.3420    2.2589   -1.1026 H       1  LIG1          0.14
     50 H          -1.5046    0.5166   -1.1408 H       1  LIG1          0.13
     51 H          -2.2099    1.4318    1.0451 H       1  LIG1          0.14
     52 H          -0.8797    0.3094    1.2211 H       1  LIG1          0.14
     53 H          -0.5943    2.2608    2.6889 H       1  LIG1       0.15000000000000002
     54 H           0.7347    2.1213    1.5568 H       1  LIG1       0.15000000000000002
     55 H           0.0566    4.4687    1.8161 H       1  LIG1       0.15000000000000002
     56 H          -0.1691    3.9407    0.1519 H       1  LIG1       0.16000000000000003
     57 H          -2.0445    5.3456    0.9225 H       1  LIG1       0.18999999999999995
     58 H          -2.6294    3.7156    0.5257 H       1  LIG1       0.18000000000000005
     59 H          -3.7073    1.9760    5.8583 H       1  LIG1       0.17000000000000004
     60 H          -2.3049    2.1464    4.7925 H       1  LIG1       0.16000000000000003
     61 H          -5.7030    3.7830    5.2250 H       1  LIG1       0.17000000000000004
     62 H          -4.6891    4.9870    4.4210 H       1  LIG1       0.16000000000000003
     63 H          -4.6756    2.0089    3.7610 H       1  LIG1       0.18000000000000005
     64 H          -2.4387    4.4224    5.3405 H       1  LIG1       0.43000000000000005
     65 H          -5.7217    4.2144    2.4328 H       1  LIG1       0.43000000000000005
@<TRIPOS>BOND
     1    28     1    1
     2    34     4    1
     3    26     1    1
     4    32     3    1
     5     1    27    1
     6     1     2    1
     7    33     4    1
     8     4     3    1
     9     4     5    1
    10     3     2    1
    11     3    31    1
    12     2    30    1
    13     2    29    1
    14    35     5    1
    15    42     8    1
    16     5    36    1
    17     5     6    1
    18    40     7    1
    19     8    41    1
    20     8     7    1
    21     8     9    1
    22     7     6    1
    23     7    39    1
    24    43     9    1
    25     6    38    1
    26     6    37    1
    27    48    12    1
    28     9    10    2
    29    50    13    1
    30    12    47    1
    31    12    13    1
    32    12    11    1
    33    10    11    1
    34    10    44    1
    35    49    13    1
    36    46    11    1
    37    13    14    1
    38    11    45    1
    39    56    16    1
    40    58    17    1
    41    14    51    1
    42    14    52    1
    43    14    15    1
    44    57    17    1
    45    16    17    1
    46    16    15    1
    47    16    55    1
    48    17    21    1
    49    54    15    1
    50    15    53    1
    51    65    23    1
    52    21    25    1
    53    21    24    2
    54    25    20    1
    55    23    19    1
    56    63    20    1
    57    20    19    1
    58    20    18    1
    59    19    62    1
    60    19    61    1
    61    60    18    1
    62    18    59    1
    63    18    22    1
    64    64    22    1
