@<TRIPOS>MOLECULE
UQBOJOOOTLPNST-UHFFFAOYSA-M	6045313	-322.01167775763304
 10 9 0 0 0
SMALL
MULLIKEN NwChem

@<TRIPOS>ATOM
      1 CB          1.3416   -0.5463    1.1541 C.2     1  ALA1      -0.4900000000000002
      2 CA          0.6749   -0.1372    0.0609 C.2     1  ALA1       0.2400000000000002
      3 C          -0.8855   -0.0207    0.0298 C.2     1  ALA1       0.4900000000000002
      4 N           1.2665    0.2460   -1.1527 N.pl3   1  ALA1      -0.8200000000000003
      5 O          -1.3250    0.5977   -0.9848 O.co2   1  ALA1      -0.6699999999999999
      6 OXT        -1.5104   -0.5114    0.9942 O.co2   1  ALA1      -0.6600000000000001
      7 HB1         0.7704   -0.8425    2.0258 H       1  ALA1          0.12
      8 HB2         2.4305   -0.6067    1.1932 H       1  ALA1          0.13
      9 H1          2.1372    0.7589   -1.0524 H       1  ALA1       0.32999999999999996
     10 H2          0.5467    0.7675   -1.6604 H       1  ALA1       0.32999999999999996
@<TRIPOS>BOND
     1    10     4    1
     2     4     9    1
     3     4     2    1
     4     5     3   ar
     5     3     2    1
     6     3     6   ar
     7     2     1    2
     8     1     8    1
     9     1     7    1
