@<TRIPOS>MOLECULE
UQFZKTIHSICSPG-DSHYQQBWSA-M	6045314	-1358.6124768689738
 79 82 0 0 0
SMALL
MULLIKEN NwChem

@<TRIPOS>ATOM
      1 C           7.0469   -4.3015    1.4377 C.3     1  LIG1      -0.45999999999999996
      2 C           7.2136   -5.4164   -0.8179 C.3     1  LIG1      -0.4500000000000002
      3 C           2.1678   -2.5867    0.9831 C.3     1  LIG1      -0.4800000000000004
      4 C           0.4499   -0.1504   -2.7958 C.3     1  LIG1      -0.4900000000000002
      5 C          -1.7243    2.2247    1.8274 C.3     1  LIG1      -0.4900000000000002
      6 C          -5.0613    3.1188    1.8403 C.3     1  LIG1      -0.4800000000000004
      7 C           5.1936   -2.1833    0.1364 C.3     1  LIG1      -0.2699999999999996
      8 C           5.5776   -3.5268   -0.4994 C.3     1  LIG1        -0.25
      9 C           3.9477   -1.5223   -0.4904 C.3     1  LIG1      -0.2699999999999996
     10 C          -2.7655   -0.3612    0.1133 C.2     1  LIG1      -0.21999999999999975
     11 C           0.4753   -3.0353   -1.6633 C.3     1  LIG1      -0.3099999999999996
     12 C          -0.8824   -2.3906   -1.2695 C.3     1  LIG1      -0.28000000000000025
     13 C          -3.8503    0.6152    0.4766 C.3     1  LIG1      -0.3200000000000003
     14 C           0.3662    1.7506   -0.4168 C.3     1  LIG1      -0.2999999999999998
     15 C          -2.8044    4.8581    0.4098 C.3     1  LIG1      -0.29000000000000004
     16 C           1.3633    0.5633   -0.5654 C.3     1  LIG1      -0.2999999999999998
     17 C          -1.7615    3.8610   -0.0990 C.3     1  LIG1      -0.29000000000000004
     18 C           6.9470   -4.0956   -0.0806 C.3     1  LIG1      -0.07000000000000028
     19 C           2.6635   -2.3839   -0.4596 C.3     1  LIG1      -0.08000000000000007
     20 C          -1.5439   -0.0265   -0.3236 C.2     1  LIG1      0.16999999999999993
     21 C           1.5935   -1.9411   -1.5018 C.3     1  LIG1      -0.09999999999999964
     22 C          -0.4833   -1.0819   -0.5705 C.3     1  LIG1      -0.17999999999999972
     23 C          -1.1635    1.4403   -0.5300 C.3     1  LIG1      -0.16999999999999993
     24 C          -3.5456    2.0400   -0.0126 C.3     1  LIG1      -0.08999999999999986
     25 C          -4.1886    4.4934   -0.1214 C.3     1  LIG1       0.16000000000000014
     26 C          -5.9909    2.7821   -0.4720 C.2     1  LIG1       0.5599999999999996
     27 C           0.7695   -0.6114   -1.3504 C.3     1  LIG1      0.11000000000000032
     28 C          -2.0559    2.4031    0.3267 C.3     1  LIG1      0.08999999999999986
     29 C          -4.6540    3.0775    0.3525 C.3     1  LIG1       -0.040000000000000036
     30 O          -5.1006    5.5113    0.2332 O.3     1  LIG1      -0.7400000000000002
     31 O          -6.0601    1.7490   -1.1679 O.co2   1  LIG1      -0.6400000000000006
     32 O          -6.8837    3.6786   -0.3360 O.co2   1  LIG1      -0.6799999999999997
     33 H           6.2550   -4.9781    1.7841 H       1  LIG1          0.14
     34 H           6.9443   -3.3604    1.9886 H       1  LIG1       0.15000000000000002
     35 H           8.0109   -4.7466    1.7143 H       1  LIG1          0.14
     36 H           6.4595   -6.1667   -0.5463 H       1  LIG1          0.14
     37 H           7.1676   -5.2813   -1.9044 H       1  LIG1          0.14
     38 H           8.1987   -5.8295   -0.5681 H       1  LIG1          0.14
     39 H           1.9613   -1.6349    1.4824 H       1  LIG1       0.15000000000000002
     40 H           1.2520   -3.1863    1.0202 H       1  LIG1       0.15000000000000002
     41 H           2.9238   -3.1116    1.5798 H       1  LIG1       0.15000000000000002
     42 H           1.3676    0.2172   -3.2708 H       1  LIG1          0.14
     43 H           0.0692   -0.9713   -3.4133 H       1  LIG1       0.15000000000000002
     44 H          -0.2890    0.6520   -2.8309 H       1  LIG1       0.15000000000000002
     45 H          -0.7581    2.6864    2.0739 H       1  LIG1          0.14
     46 H          -2.4724    2.6929    2.4657 H       1  LIG1       0.15000000000000002
     47 H          -1.6663    1.1657    2.1029 H       1  LIG1          0.14
     48 H          -4.2487    3.4189    2.5105 H       1  LIG1       0.15000000000000002
     49 H          -5.8690    3.8419    1.9590 H       1  LIG1          0.13
     50 H          -5.4327    2.1458    2.1743 H       1  LIG1          0.14
     51 H           5.0387   -2.3191    1.2141 H       1  LIG1          0.14
     52 H           6.0384   -1.4868    0.0399 H       1  LIG1          0.13
     53 H           5.5659   -3.4178   -1.5927 H       1  LIG1          0.13
     54 H           4.8097   -4.2780   -0.2623 H       1  LIG1          0.13
     55 H           3.7693   -0.5707    0.0205 H       1  LIG1          0.13
     56 H           4.1801   -1.2683   -1.5348 H       1  LIG1          0.12
     57 H          -2.9997   -1.4177    0.2590 H       1  LIG1       0.10999999999999999
     58 H           0.4501   -3.4201   -2.6886 H       1  LIG1          0.14
     59 H           0.6941   -3.8989   -1.0240 H       1  LIG1          0.14
     60 H          -1.4789   -3.0439   -0.6239 H       1  LIG1          0.14
     61 H          -1.4985   -2.1678   -2.1467 H       1  LIG1          0.13
     62 H          -3.9730    0.5910    1.5718 H       1  LIG1          0.13
     63 H          -4.8116    0.3174    0.0481 H       1  LIG1       0.15000000000000002
     64 H           0.5702    2.2276    0.5468 H       1  LIG1          0.14
     65 H           0.6006    2.5080   -1.1721 H       1  LIG1          0.14
     66 H          -2.5527    5.8765    0.0838 H       1  LIG1          0.13
     67 H          -2.8292    4.8763    1.5063 H       1  LIG1          0.13
     68 H           1.6418    0.2139    0.4358 H       1  LIG1          0.14
     69 H           2.2904    0.9210   -1.0310 H       1  LIG1          0.13
     70 H          -0.7574    4.1534    0.2353 H       1  LIG1          0.13
     71 H          -1.7450    3.9083   -1.1975 H       1  LIG1          0.13
     72 H           7.7237   -3.3753   -0.3780 H       1  LIG1          0.12
     73 H           2.9524   -3.3824   -0.8241 H       1  LIG1          0.13
     74 H           2.1542   -1.8721   -2.4447 H       1  LIG1       0.10999999999999999
     75 H          -0.1036   -1.3628    0.4220 H       1  LIG1          0.14
     76 H          -1.4385    1.6697   -1.5695 H       1  LIG1          0.14
     77 H          -3.5979    1.9861   -1.1093 H       1  LIG1       0.10999999999999999
     78 H          -4.1058    4.4312   -1.2286 H       1  LIG1       0.08999999999999997
     79 H          -5.9801    5.0658    0.0491 H       1  LIG1       0.41000000000000003
@<TRIPOS>BOND
     1    43     4    1
     2    42     4    1
     3    44     4    1
     4     4    27    1
     5    58    11    1
     6    74    21    1
     7    61    12    1
     8    37     2    1
     9    11    21    1
    10    11    12    1
    11    11    59    1
    12    53     8    1
    13    76    23    1
    14    56     9    1
    15    21    27    1
    16    21    19    1
    17    27    22    1
    18    27    16    1
    19    12    60    1
    20    12    22    1
    21    78    25    1
    22    71    17    1
    23    65    14    1
    24    31    26   ar
    25    77    24    1
    26    69    16    1
    27    73    19    1
    28     2    38    1
    29     2    36    1
    30     2    18    1
    31    22    20    1
    32    22    75    1
    33    16    14    1
    34    16    68    1
    35    23    14    1
    36    23    20    1
    37    23    28    1
    38     8    54    1
    39     8    18    1
    40     8     7    1
    41     9    19    1
    42     9    55    1
    43     9     7    1
    44    26    32   ar
    45    26    29    1
    46    19     3    1
    47    14    64    1
    48    72    18    1
    49    20    10    2
    50    25    30    1
    51    25    29    1
    52    25    15    1
    53    17    70    1
    54    17    28    1
    55    17    15    1
    56    18     1    1
    57    24    28    1
    58    24    29    1
    59    24    13    1
    60    52     7    1
    61    63    13    1
    62    79    30    1
    63    66    15    1
    64    10    57    1
    65    10    13    1
    66     7    51    1
    67    28     5    1
    68    29     6    1
    69    15    67    1
    70    13    62    1
    71     3    40    1
    72     3    39    1
    73     3    41    1
    74     1    35    1
    75     1    33    1
    76     1    34    1
    77     5    45    1
    78     5    47    1
    79     5    46    1
    80     6    49    1
    81     6    50    1
    82     6    48    1
