@<TRIPOS>MOLECULE
URTLOTISFJPPOU-DEGQQWIJSA-I	11164773	-4246.966924999068
 91 93 0 0 0
SMALL
MULLIKEN NwChem

@<TRIPOS>ATOM
      1 C           1.8435    4.0563   -1.1677 C.3     1  LIG1      -0.46999999999999975
      2 C           3.2597    2.1105   -1.9373 C.3     1  LIG1      -0.4800000000000004
      3 C          14.6706   -3.1065   -0.6516 C.2     1  LIG1      -0.05999999999999961
      4 C          15.8190   -4.0113   -0.9446 C.3     1  LIG1       -0.41000000000000014
      5 C          14.4980   -2.4621    0.5190 C.2     1  LIG1      -0.20999999999999996
      6 C           6.7845    0.6530    0.6604 C.3     1  LIG1       -0.3700000000000001
      7 C           5.2540    0.8275    0.7669 C.3     1  LIG1       -0.16999999999999993
      8 C           9.5542    0.0322    0.4272 C.3     1  LIG1       -0.1299999999999999
      9 C          10.9149   -0.3329    1.0495 C.3     1  LIG1       -0.3899999999999997
     10 C          -5.5987   -0.0495    0.5658 C.3     1  LIG1       -0.07000000000000028
     11 C           0.8525    1.7723   -1.4837 C.3     1  LIG1       -0.05999999999999961
     12 C          -9.5096   -4.6890   -0.9731 C.ar    1  LIG1       0.15000000000000036
     13 C         -10.0767   -0.9199   -3.0464 C.ar    1  LIG1       0.23000000000000043
     14 C          -6.9559    0.4530    0.0905 C.3     1  LIG1       0.1299999999999999
     15 C           7.3165   -0.8150    0.6012 C.2     1  LIG1       0.46999999999999975
     16 C          16.6966   -3.6249   -2.2286 C.2     1  LIG1       0.5199999999999996
     17 C          13.4132   -1.5473    0.9538 C.2     1  LIG1          0.25
     18 C         -10.2816   -3.0151   -2.8859 C.ar    1  LIG1       0.1900000000000004
     19 C          -9.2230   -0.3743    0.5178 C.3     1  LIG1       0.09999999999999964
     20 C          -8.0932    0.4865    1.1465 C.3     1  LIG1       0.04999999999999982
     21 C           2.4404    2.2107    0.4668 C.3     1  LIG1       0.07000000000000028
     22 C         -10.5809   -4.3825   -2.9818 C.ar    1  LIG1       0.4500000000000002
     23 C          -9.5738   -2.6076   -1.7397 C.ar    1  LIG1       0.5300000000000002
     24 C           3.8058    2.8433    0.9600 C.2     1  LIG1       0.4500000000000002
     25 C          -8.8381   -0.2582   -0.9668 C.3     1  LIG1       0.2599999999999998
     26 C           2.1026    2.5466   -1.0196 C.3     1  LIG1       0.07000000000000028
     27 N         -11.2518   -4.8980   -4.0775 N.pl3   1  LIG1      -0.7800000000000002
     28 N           8.6328   -1.0574    0.5048 N.am    1  LIG1      -0.6299999999999999
     29 N           4.9581    2.2197    1.0746 N.am    1  LIG1      -0.6100000000000003
     30 N         -10.1955   -5.2200   -2.0093 N.ar    1  LIG1        -0.54
     31 N          -9.1627   -3.4226   -0.7564 N.ar    1  LIG1      -0.5300000000000002
     32 N         -10.5960   -1.9404   -3.6978 N.ar    1  LIG1      -0.5700000000000003
     33 N          -9.4554   -1.2392   -1.8629 N.ar    1  LIG1      -0.5199999999999996
     34 O           6.4566   -1.7315    0.6727 O.2     1  LIG1      -0.7100000000000009
     35 O          17.9333   -3.7680   -2.0691 O.co2   1  LIG1      -0.6699999999999999
     36 O          16.0379   -3.2866   -3.2372 O.co2   1  LIG1      -0.6600000000000001
     37 O          13.6093   -0.7839    1.8995 O.2     1  LIG1      -0.5199999999999996
     38 O         -10.5087    0.1150    0.8110 O.3     1  LIG1      -0.6899999999999995
     39 O           2.2924    0.7696    0.6484 O.3     1  LIG1      -0.7100000000000009
     40 O           3.6392    4.0765    1.2238 O.2     1  LIG1      -0.7100000000000009
     41 O          -8.6097    4.0726    2.4044 O.2     1  LIG1      -0.6799999999999997
     42 O          -8.8225    1.8703    3.8535 O.3     1  LIG1      -0.7100000000000009
     43 O          -6.6088    2.3960    2.7500 O.3     1  LIG1        -0.75
     44 O          -4.7427    2.6246    0.6384 O.3     1  LIG1      -0.6699999999999999
     45 O          -3.6041    2.2154   -1.7161 O.2     1  LIG1      -0.6600000000000001
     46 O          -0.3535    0.5585    1.3867 O.3     1  LIG1      -0.7100000000000009
     47 O          -1.2075   -0.3684   -0.9081 O.2     1  LIG1      -0.6300000000000008
     48 O          -4.5654    0.2620   -0.3552 O.3     1  LIG1      -0.5899999999999999
     49 O          -0.3022    2.0663   -0.6655 O.3     1  LIG1      -0.5600000000000005
     50 O          -7.4497   -0.3879   -1.0062 O.3     1  LIG1      -0.5299999999999994
     51 O          -8.6148    1.7969    1.2718 O.3     1  LIG1      -0.6500000000000004
     52 O          -2.4657    1.4771    0.5173 O.3     1  LIG1      -0.6099999999999994
     53 P          -8.2227    2.6584    2.7216 P.3     1  LIG1       1.0700000000000003
     54 P          -3.9193    1.8005   -0.3201 P.3     1  LIG1          1.17
     55 P          -1.1120    0.8149   -0.0151 P.3     1  LIG1          1.17
     56 S          11.8091   -1.6896    0.1485 S.3     1  LIG1      0.03999999999999915
     57 H           1.6919    4.3110   -2.2287 H       1  LIG1          0.14
     58 H           0.9374    4.3359   -0.6196 H       1  LIG1          0.14
     59 H           2.6806    4.6197   -0.7505 H       1  LIG1       0.16000000000000003
     60 H           3.0387    2.3399   -2.9907 H       1  LIG1       0.15000000000000002
     61 H           3.4380    1.0334   -1.8502 H       1  LIG1       0.16000000000000003
     62 H           4.1833    2.6216   -1.6484 H       1  LIG1       0.15000000000000002
     63 H          13.9623   -2.9636   -1.4665 H       1  LIG1       0.16000000000000003
     64 H          16.4759   -4.1152   -0.0725 H       1  LIG1          0.14
     65 H          15.4169   -5.0106   -1.1826 H       1  LIG1       0.17000000000000004
     66 H          15.2606   -2.5641    1.2935 H       1  LIG1       0.16000000000000003
     67 H           7.2198    1.1770    1.5255 H       1  LIG1          0.13
     68 H           7.1368    1.2257   -0.2127 H       1  LIG1          0.13
     69 H           4.9299    0.1209    1.5608 H       1  LIG1       0.10999999999999999
     70 H           4.8085    0.4370   -0.1661 H       1  LIG1          0.12
     71 H           9.2663    0.9526    0.9843 H       1  LIG1          0.12
     72 H           9.7547    0.3925   -0.6108 H       1  LIG1       0.10999999999999999
     73 H          10.7637   -0.6871    2.0733 H       1  LIG1       0.18000000000000005
     74 H          11.6028    0.5200    1.0702 H       1  LIG1       0.18000000000000005
     75 H          -5.4120    0.3931    1.5499 H       1  LIG1       0.17000000000000004
     76 H          -5.6312   -1.1428    0.6609 H       1  LIG1       0.17000000000000004
     77 H           0.5984    2.0698   -2.5105 H       1  LIG1       0.17000000000000004
     78 H           1.0472    0.6973   -1.4839 H       1  LIG1       0.17000000000000004
     79 H          -9.2064   -5.4007   -0.2071 H       1  LIG1       0.17000000000000004
     80 H         -10.1126    0.1107   -3.3750 H       1  LIG1       0.21999999999999997
     81 H          -6.8314    1.4739   -0.2818 H       1  LIG1       0.18000000000000005
     82 H          -9.1362   -1.4217    0.8229 H       1  LIG1       0.17000000000000004
     83 H          -7.7875    0.0981    2.1224 H       1  LIG1       0.18000000000000005
     84 H           1.6697    2.6765    1.0886 H       1  LIG1          0.13
     85 H          -9.1821    0.7259   -1.3302 H       1  LIG1       0.17000000000000004
     86 H         -11.7261   -5.7722   -3.8900 H       1  LIG1          0.37
     87 H         -11.7975   -4.2136   -4.5862 H       1  LIG1          0.37
     88 H         -10.3028    1.0114    1.1695 H       1  LIG1       0.43999999999999995
     89 H           3.1087    0.4422    1.0558 H       1  LIG1       0.44999999999999996
     90 H          -6.0892    2.6814    1.9588 H       1  LIG1          0.47
     91 H           0.6289    0.5216    1.2240 H       1  LIG1           0.48
@<TRIPOS>BOND
     1    87    27    1
     2    27    86    1
     3    27    22    1
     4    32    13   ar
     5    32    18   ar
     6    80    13    1
     7    36    16   ar
     8    13    33   ar
     9    60     2    1
    10    22    18   ar
    11    22    30   ar
    12    18    23   ar
    13    77    11    1
    14    57     1    1
    15    16    35   ar
    16    16     4    1
    17    30    12   ar
    18     2    61    1
    19     2    62    1
    20     2    26    1
    21    33    23   ar
    22    33    25    1
    23    23    31   ar
    24    45    54    2
    25    78    11    1
    26    11    26    1
    27    11    49    1
    28    63     3    1
    29    85    25    1
    30    65     4    1
    31     1    26    1
    32     1    59    1
    33     1    58    1
    34    26    21    1
    35    50    25    1
    36    50    14    1
    37    12    31   ar
    38    12    79    1
    39    25    19    1
    40     4     3    1
    41     4    64    1
    42    47    55    2
    43    49    55    1
    44     3     5    2
    45    72     8    1
    46    48    54    1
    47    48    10    1
    48    54    52    1
    49    54    44    1
    50    81    14    1
    51    68     6    1
    52    70     7    1
    53    55    52    1
    54    55    46    1
    55    14    10    1
    56    14    20    1
    57    56    17    1
    58    56     9    1
    59     8    28    1
    60     8    71    1
    61     8     9    1
    62    21    39    1
    63    21    24    1
    64    21    84    1
    65    28    15   am
    66    19    38    1
    67    19    82    1
    68    19    20    1
    69     5    17    1
    70     5    66    1
    71    10    76    1
    72    10    75    1
    73    15     6    1
    74    15    34    2
    75    39    89    1
    76     6     7    1
    77     6    67    1
    78     7    29    1
    79     7    69    1
    80    38    88    1
    81    17    37    2
    82    24    29   am
    83    24    40    2
    84     9    74    1
    85     9    73    1
    86    20    51    1
    87    20    83    1
    88    91    46    1
    89    51    53    1
    90    90    43    1
    91    41    53    2
    92    53    43    1
    93    53    42    1
