@<TRIPOS>MOLECULE
UTIBHEBNILDQKX-LQOKPSQISA-M	6045318	-2057.402337562525
 119 119 0 0 0
SMALL
MULLIKEN NwChem

@<TRIPOS>ATOM
      1 C           6.9415    0.5825    0.1773 C.3     1  LIG1            -0.54
      2 C           6.9969    0.8819    2.7120 C.3     1  LIG1        -0.54
      3 C           3.3909    5.1725   -1.1735 C.3     1  LIG1        -0.54
      4 C           2.5732    3.2655    4.6866 C.3     1  LIG1        -0.54
      5 C           3.9665   -1.8019    1.6720 C.3     1  LIG1      -0.5499999999999998
      6 C           1.9426    1.6643   -1.0979 C.3     1  LIG1        -0.54
      7 C          -1.5358    2.2427    2.4247 C.3     1  LIG1        -0.54
      8 C          -0.4011   -3.5275    2.8323 C.3     1  LIG1      -0.5300000000000002
      9 C          -0.3471   -3.5581   -3.3448 C.3     1  LIG1        -0.54
     10 C           6.6350    3.6172   -0.0825 C.3     1  LIG1      -0.2999999999999998
     11 C           2.7051    4.8500    1.8887 C.3     1  LIG1      -0.3200000000000003
     12 C           2.6980    0.3054    3.7102 C.3     1  LIG1      -0.33000000000000007
     13 C           2.1481   -1.3729   -0.7041 C.3     1  LIG1      -0.33000000000000007
     14 C          -1.1113    2.3752   -0.8991 C.3     1  LIG1      -0.3099999999999996
     15 C          -2.1768   -0.6402    2.7083 C.3     1  LIG1      -0.3099999999999996
     16 C          -0.5683   -4.1700   -0.1013 C.3     1  LIG1      -0.3200000000000003
     17 C           6.7727    2.8598    1.2202 C.2     1  LIG1      -0.1900000000000004
     18 C           5.2600    3.4876   -0.7944 C.3     1  LIG1      -0.33999999999999986
     19 C           3.8044    4.1753    1.1149 C.2     1  LIG1      -0.16999999999999993
     20 C           1.6281    3.8438    2.3751 C.3     1  LIG1      -0.33999999999999986
     21 C           2.2200    1.4997    2.9236 C.2     1  LIG1      -0.20000000000000018
     22 C           2.0668   -1.0131    3.1978 C.3     1  LIG1      -0.34999999999999964
     23 C           1.7172   -1.2227    0.7364 C.2     1  LIG1      -0.16999999999999993
     24 C           1.1680   -0.7105   -1.6984 C.3     1  LIG1      -0.34999999999999964
     25 C          -0.5037    1.0543   -1.2895 C.2     1  LIG1      -0.20999999999999996
     26 C          -2.3772    2.1459   -0.0331 C.3     1  LIG1      -0.3700000000000001
     27 C          -2.3441    0.1204    1.4129 C.2     1  LIG1      -0.1900000000000004
     28 C          -2.5578   -2.1350    2.6003 C.3     1  LIG1      -0.34999999999999964
     29 C          -1.5513   -3.2891    0.6284 C.2     1  LIG1      -0.1900000000000004
     30 C          -1.1999   -4.8761   -1.3293 C.3     1  LIG1      -0.33999999999999986
     31 C          -2.7553   -3.4412   -2.6396 C.2     1  LIG1      -0.17999999999999972
     32 C          -3.2257   -2.4578   -3.6924 C.3     1  LIG1      -0.3799999999999999
     33 C          -6.9867   -0.5839   -2.6864 C.2     1  LIG1      -0.1900000000000004
     34 C          -5.8062    0.0624   -2.3971 C.2     1  LIG1        -0.25
     35 C          -5.7464   -2.4325   -3.6177 C.2     1  LIG1      -0.29000000000000004
     36 C           6.9009    1.5316    1.3515 C.2     1  LIG1      0.17999999999999972
     37 C           4.1171    4.2948   -0.1837 C.2     1  LIG1      0.16999999999999993
     38 C           2.1476    2.7804    3.3228 C.2     1  LIG1      0.17999999999999972
     39 C           2.5221   -1.3676    1.7995 C.2     1  LIG1      0.16000000000000014
     40 C           0.7929    0.7153   -1.3422 C.2     1  LIG1      0.17999999999999972
     41 C          -2.0987    1.4316    1.2729 C.2     1  LIG1      0.16999999999999993
     42 C          -1.5037   -2.9948    1.9342 C.2     1  LIG1      0.16999999999999993
     43 C          -1.5187   -3.9230   -2.4615 C.2     1  LIG1      0.17999999999999972
     44 C          -4.5440   -1.8114   -3.3397 C.2     1  LIG1       0.040000000000000036
     45 C          -7.0009   -1.8734   -3.2731 C.3     1  LIG1       0.040000000000000036
     46 C          -4.5120   -0.5330   -2.6405 C.2     1  LIG1       0.34999999999999964
     47 C          -8.2782   -2.5603   -3.4558 C.2     1  LIG1           0.5
     48 O          -3.4221    0.0165   -2.2894 O.2     1  LIG1      -0.6699999999999999
     49 O          -8.2116   -3.9174   -3.7421 O.3     1  LIG1      -0.6400000000000006
     50 O          -9.3865   -2.0615   -3.3567 O.2     1  LIG1      -0.5600000000000005
     51 H           7.7056   -0.1932    0.3252 H       1  LIG1       0.16000000000000003
     52 H           7.1551    1.0939   -0.7663 H       1  LIG1       0.16000000000000003
     53 H           5.9831    0.0598    0.0585 H       1  LIG1       0.18000000000000005
     54 H           6.8712    1.6112    3.5214 H       1  LIG1       0.16000000000000003
     55 H           6.2330    0.1030    2.8390 H       1  LIG1       0.17000000000000004
     56 H           7.9697    0.3848    2.8457 H       1  LIG1       0.16000000000000003
     57 H           2.5580    5.7299   -0.7388 H       1  LIG1       0.16000000000000003
     58 H           4.0828    5.8935   -1.6323 H       1  LIG1       0.16000000000000003
     59 H           2.9850    4.5639   -1.9908 H       1  LIG1       0.16000000000000003
     60 H           2.7607    2.4471    5.3888 H       1  LIG1       0.16000000000000003
     61 H           3.4961    3.8619    4.6280 H       1  LIG1       0.17000000000000004
     62 H           1.8040    3.9189    5.1254 H       1  LIG1       0.16000000000000003
     63 H           4.1262   -2.4485    0.8033 H       1  LIG1       0.16000000000000003
     64 H           4.6396   -0.9422    1.5692 H       1  LIG1       0.18999999999999995
     65 H           4.2886   -2.3527    2.5646 H       1  LIG1       0.16000000000000003
     66 H           2.6064    1.7001   -1.9728 H       1  LIG1       0.16000000000000003
     67 H           1.6083    2.6856   -0.8982 H       1  LIG1       0.17000000000000004
     68 H           2.5637    1.3534   -0.2470 H       1  LIG1       0.16000000000000003
     69 H          -2.2021    2.2010    3.3001 H       1  LIG1       0.16000000000000003
     70 H          -0.5655    1.8672    2.7617 H       1  LIG1       0.17000000000000004
     71 H          -1.4058    3.2971    2.1555 H       1  LIG1       0.16000000000000003
     72 H          -0.5751   -4.5896    3.0659 H       1  LIG1       0.16000000000000003
     73 H           0.5846   -3.4513    2.3620 H       1  LIG1       0.16000000000000003
     74 H          -0.3574   -2.9861    3.7853 H       1  LIG1       0.16000000000000003
     75 H          -0.1654   -4.3437   -4.0953 H       1  LIG1       0.16000000000000003
     76 H          -0.5023   -2.6162   -3.8788 H       1  LIG1       0.16000000000000003
     77 H           0.5747   -3.4566   -2.7598 H       1  LIG1       0.17000000000000004
     78 H           6.8341    4.6793    0.0969 H       1  LIG1          0.14
     79 H           7.4064    3.2720   -0.7861 H       1  LIG1       0.15000000000000002
     80 H           3.1401    5.3591    2.7619 H       1  LIG1       0.15000000000000002
     81 H           2.2106    5.6300    1.2997 H       1  LIG1          0.14
     82 H           3.7954    0.2273    3.6528 H       1  LIG1       0.16000000000000003
     83 H           2.4628    0.4182    4.7757 H       1  LIG1       0.15000000000000002
     84 H           3.1505   -0.9356   -0.8299 H       1  LIG1       0.15000000000000002
     85 H           2.2596   -2.4369   -0.9705 H       1  LIG1       0.16000000000000003
     86 H          -0.3953    3.0218   -0.3770 H       1  LIG1       0.15000000000000002
     87 H          -1.4240    2.9197   -1.8047 H       1  LIG1          0.14
     88 H          -1.1451   -0.5494    3.0831 H       1  LIG1       0.17000000000000004
     89 H          -2.8023   -0.1703    3.4854 H       1  LIG1       0.15000000000000002
     90 H           0.2984   -3.5758   -0.4301 H       1  LIG1       0.17000000000000004
     91 H          -0.1676   -4.9358    0.5761 H       1  LIG1       0.15000000000000002
     92 H           6.7486    3.4558    2.1317 H       1  LIG1          0.13
     93 H           5.3980    3.8060   -1.8380 H       1  LIG1          0.14
     94 H           4.9759    2.4245   -0.8407 H       1  LIG1       0.16000000000000003
     95 H           4.3763    3.4583    1.7012 H       1  LIG1          0.12
     96 H           0.8273    4.4129    2.8709 H       1  LIG1          0.14
     97 H           1.1808    3.3663    1.4980 H       1  LIG1       0.17000000000000004
     98 H           1.8947    1.2702    1.9091 H       1  LIG1          0.14
     99 H           2.3276   -1.8201    3.8966 H       1  LIG1          0.14
    100 H           0.9781   -0.9066    3.2274 H       1  LIG1       0.16000000000000003
    101 H           0.6836   -0.9134    0.8989 H       1  LIG1          0.12
    102 H           1.6292   -0.7404   -2.6987 H       1  LIG1          0.14
    103 H           0.2509   -1.3085   -1.7502 H       1  LIG1       0.15000000000000002
    104 H          -1.2514    0.3018   -1.5464 H       1  LIG1          0.14
    105 H          -2.8448    3.1202    0.1755 H       1  LIG1          0.13
    106 H          -3.0724    1.5568   -0.6391 H       1  LIG1       0.15000000000000002
    107 H          -2.7332   -0.4255    0.5555 H       1  LIG1       0.10999999999999999
    108 H          -2.7444   -2.5261    3.6109 H       1  LIG1          0.14
    109 H          -3.5074   -2.2108    2.0552 H       1  LIG1          0.14
    110 H          -2.3553   -2.8767    0.0244 H       1  LIG1          0.13
    111 H          -0.5034   -5.6505   -1.6849 H       1  LIG1          0.14
    112 H          -2.1090   -5.3941   -0.9978 H       1  LIG1          0.14
    113 H          -3.5398   -3.7949   -1.9665 H       1  LIG1          0.12
    114 H          -2.4778   -1.6635   -3.8174 H       1  LIG1       0.15000000000000002
    115 H          -3.3178   -2.9830   -4.6581 H       1  LIG1       0.15000000000000002
    116 H          -7.9441   -0.1224   -2.4523 H       1  LIG1          0.13
    117 H          -5.8091    1.0488   -1.9374 H       1  LIG1       0.10999999999999999
    118 H          -5.7104   -3.3784   -4.1692 H       1  LIG1       0.15000000000000002
    119 H          -7.2949   -4.2085   -3.5962 H       1  LIG1       0.44999999999999996
@<TRIPOS>BOND
     1   115    32    1
     2   118    35    1
     3    75     9    1
     4    76     9    1
     5   114    32    1
     6    49   119    1
     7    49    47    1
     8    32    44    1
     9    32    31    1
    10    35    44    2
    11    35    45    1
    12    47    50    2
    13    47    45    1
    14     9    77    1
    15     9    43    1
    16    44    46    1
    17    45    33    1
    18   102    24    1
    19    33   116    1
    20    33    34    2
    21    46    34    1
    22    46    48    2
    23    31    43    2
    24    31   113    1
    25    43    30    1
    26    34   117    1
    27    59     3    1
    28    66     6    1
    29    93    18    1
    30    87    14    1
    31   103    24    1
    32    24    40    1
    33    24    13    1
    34   111    30    1
    35    58     3    1
    36   104    25    1
    37    40    25    2
    38    40     6    1
    39    30   112    1
    40    30    16    1
    41    25    14    1
    42     3    57    1
    43     3    37    1
    44     6    67    1
    45     6    68    1
    46    85    13    1
    47    14    86    1
    48    14    26    1
    49    94    18    1
    50    84    13    1
    51    18    37    1
    52    18    10    1
    53    79    10    1
    54    52     1    1
    55    13    23    1
    56   106    26    1
    57    90    16    1
    58    37    19    2
    59    16    91    1
    60    16    29    1
    61    10    78    1
    62    10    17    1
    63    26   105    1
    64    26    41    1
    65   110    29    1
    66    53     1    1
    67     1    51    1
    68     1    36    1
    69   107    27    1
    70    29    42    2
    71    23   101    1
    72    23    39    2
    73    63     5    1
    74    19    95    1
    75    19    11    1
    76    17    36    2
    77    17    92    1
    78    41    27    2
    79    41     7    1
    80    81    11    1
    81    36     2    1
    82    27    15    1
    83    97    20    1
    84    64     5    1
    85     5    39    1
    86     5    65    1
    87    39    22    1
    88    11    20    1
    89    11    80    1
    90    98    21    1
    91    42    28    1
    92    42     8    1
    93   109    28    1
    94    71     7    1
    95    73     8    1
    96    20    96    1
    97    20    38    1
    98     7    70    1
    99     7    69    1
   100    28    15    1
   101    28   108    1
   102    15    88    1
   103    15    89    1
   104     2    55    1
   105     2    56    1
   106     2    54    1
   107     8    72    1
   108     8    74    1
   109    21    38    2
   110    21    12    1
   111    22   100    1
   112    22    12    1
   113    22    99    1
   114    38     4    1
   115    82    12    1
   116    12    83    1
   117    61     4    1
   118     4    62    1
   119     4    60    1
