@<TRIPOS>MOLECULE
UTQCSTJVMLODHM-RHCAYAJFSA-M	11083968	-2578.047337997697
 65 69 0 0 0
SMALL
MULLIKEN NwChem

@<TRIPOS>ATOM
      1 C           3.1681   -0.5451    1.8000 C.3     1  LIG1      -0.2999999999999998
      2 C           2.9785   -1.5955    2.9067 C.3     1  LIG1      -0.28000000000000025
      3 C           4.4245   -0.7755    0.9386 C.3     1  LIG1      -0.29000000000000004
      4 C           3.1570   -3.0585    2.4615 C.3     1  LIG1       -0.3700000000000001
      5 C           0.2304   -1.1245   -1.2326 C.3     1  LIG1       -0.08999999999999986
      6 C           5.9014    2.7909   -0.2710 C.3     1  LIG1       -0.41000000000000014
      7 C          -6.5917    2.5096   -0.7034 C.ar    1  LIG1       0.15000000000000036
      8 C          -3.7817   -0.8101   -0.5792 C.ar    1  LIG1       0.20999999999999996
      9 C           4.7229    2.5320   -1.2446 C.3     1  LIG1           0.0
     10 C          -0.3629    0.2590   -1.2541 C.3     1  LIG1       0.11000000000000032
     11 C           5.0042    0.4149    0.1514 C.3     1  LIG1       -0.2599999999999998
     12 C           2.3702   -3.5140    1.2578 C.2     1  LIG1       0.6500000000000004
     13 C           4.1757    1.0642   -0.9871 C.3     1  LIG1       0.040000000000000036
     14 C          -5.7092    0.0327   -0.2812 C.ar    1  LIG1       0.1900000000000004
     15 C          -0.7700    0.8587    0.1067 C.3     1  LIG1       0.08000000000000007
     16 C          -1.7058    1.9834   -0.3925 C.3     1  LIG1       0.08999999999999986
     17 C          -7.0433    0.3662    0.0130 C.ar    1  LIG1       0.45999999999999996
     18 C          -4.9148    1.0705   -0.7892 C.ar    1  LIG1          0.54
     19 C          -2.4814    1.2125   -1.4824 C.3     1  LIG1       0.2599999999999998
     20 C           2.5997    2.7602   -0.6105 C.2     1  LIG1       0.6600000000000001
     21 N          -7.9319   -0.5650    0.4823 N.pl3   1  LIG1      -0.7800000000000002
     22 N          -7.4711    1.6226   -0.1990 N.ar    1  LIG1      -0.5499999999999998
     23 N          -5.3088    2.3311   -1.0256 N.ar    1  LIG1      -0.5499999999999998
     24 N          -4.9844   -1.1379   -0.1552 N.ar    1  LIG1      -0.5800000000000001
     25 N           3.6369    3.4521   -0.9916 N.am    1  LIG1      -0.5999999999999996
     26 N           2.7719    1.3340   -0.7372 N.am    1  LIG1      -0.6699999999999999
     27 N          -3.6717    0.5095   -0.9780 N.ar    1  LIG1      -0.5099999999999998
     28 O           2.7809   -4.3581    0.4741 O.2     1  LIG1      -0.5299999999999994
     29 O           0.2719    1.1847    0.9792 O.3     1  LIG1      -0.7100000000000009
     30 O          -1.0566    3.0362   -1.0605 O.3     1  LIG1      -0.7200000000000006
     31 O           1.4778    3.1899   -0.1627 O.2     1  LIG1      -0.7200000000000006
     32 O           0.7563   -4.0038   -1.1628 O.3     1  LIG1      -0.6899999999999995
     33 O          -1.0569   -4.2548    0.7552 O.2     1  LIG1      -0.5500000000000007
     34 O          -0.6091   -2.0159   -0.4349 O.3     1  LIG1      -0.5199999999999996
     35 O          -1.5856    0.2518   -2.0190 O.3     1  LIG1      -0.5500000000000007
     36 O           1.1571   -2.9246    1.1497 O.3     1  LIG1      -0.5399999999999991
     37 P          -0.0620   -3.4120    0.0768 P.3     1  LIG1       1.2400000000000002
     38 S           5.5645    1.8036    1.2419 S.3     1  LIG1      -0.019999999999999574
     39 H           3.2074    0.4453    2.2650 H       1  LIG1       0.16000000000000003
     40 H           2.2604   -0.5477    1.1926 H       1  LIG1       0.17000000000000004
     41 H           1.9823   -1.4677    3.3430 H       1  LIG1       0.16000000000000003
     42 H           3.7057   -1.4241    3.7115 H       1  LIG1       0.16000000000000003
     43 H           4.2357   -1.5862    0.2185 H       1  LIG1       0.16000000000000003
     44 H           5.2314   -1.1408    1.5908 H       1  LIG1       0.16000000000000003
     45 H           2.8586   -3.7284    3.2809 H       1  LIG1       0.21999999999999997
     46 H           4.2018   -3.2890    2.2367 H       1  LIG1       0.19999999999999996
     47 H           1.2300   -1.0729   -0.7951 H       1  LIG1       0.19999999999999996
     48 H           0.2959   -1.5398   -2.2411 H       1  LIG1       0.19999999999999996
     49 H           5.9447    3.8512   -0.0149 H       1  LIG1       0.18000000000000005
     50 H           6.8645    2.4743   -0.6949 H       1  LIG1       0.18000000000000005
     51 H          -6.9861    3.5115   -0.8637 H       1  LIG1       0.17000000000000004
     52 H          -2.9324   -1.4749   -0.6369 H       1  LIG1       0.21999999999999997
     53 H           5.1046    2.6347   -2.2737 H       1  LIG1          0.13
     54 H           0.3766    0.9137   -1.7314 H       1  LIG1       0.17000000000000004
     55 H           5.9169    0.0357   -0.3318 H       1  LIG1       0.18000000000000005
     56 H           4.2891    0.4252   -1.8763 H       1  LIG1       0.15000000000000002
     57 H          -1.3923    0.1177    0.6234 H       1  LIG1       0.16000000000000003
     58 H          -2.3777    2.3494    0.3978 H       1  LIG1       0.16000000000000003
     59 H          -2.8205    1.9027   -2.2586 H       1  LIG1       0.18000000000000005
     60 H          -7.5317   -1.4011    0.8858 H       1  LIG1          0.37
     61 H          -8.7614   -0.1963    0.9265 H       1  LIG1          0.37
     62 H           2.3190    0.8282    0.0101 H       1  LIG1          0.35
     63 H           0.7403    2.0126    0.6347 H       1  LIG1       0.43000000000000005
     64 H          -0.1166    3.1480   -0.7608 H       1  LIG1       0.43999999999999995
     65 H           1.6020   -4.3999   -0.8287 H       1  LIG1           0.48
@<TRIPOS>BOND
     1    53     9    1
     2    59    19    1
     3    48     5    1
     4    35    19    1
     5    35    10    1
     6    56    13    1
     7    54    10    1
     8    19    27    1
     9    19    16    1
    10    10     5    1
    11    10    15    1
    12     9    25    1
    13     9    13    1
    14     9     6    1
    15     5    47    1
    16     5    34    1
    17    32    65    1
    18    32    37    1
    19    30    64    1
    20    30    16    1
    21    23    18   ar
    22    23     7   ar
    23    25    20   am
    24    13    26    1
    25    13    11    1
    26    27    18   ar
    27    27     8   ar
    28    51     7    1
    29    18    14   ar
    30    26    20   am
    31    26    62    1
    32     7    22   ar
    33    50     6    1
    34    52     8    1
    35    20    31    2
    36     8    24   ar
    37    34    37    1
    38    16    15    1
    39    16    58    1
    40    55    11    1
    41    14    24   ar
    42    14    17   ar
    43     6    49    1
    44     6    38    1
    45    22    17   ar
    46    17    21    1
    47    37    33    2
    48    37    36    1
    49    15    57    1
    50    15    29    1
    51    11     3    1
    52    11    38    1
    53    43     3    1
    54    28    12    2
    55    21    60    1
    56    21    61    1
    57    63    29    1
    58     3    44    1
    59     3     1    1
    60    36    12    1
    61    40     1    1
    62    12     4    1
    63     1    39    1
    64     1     2    1
    65    46     4    1
    66     4     2    1
    67     4    45    1
    68     2    41    1
    69     2    42    1
