@<TRIPOS>MOLECULE
UUYVRXVWXDDDGX-WDSKDSINSA-M	6045323	-3805.6663335475064
 37 36 0 0 0
SMALL
MULLIKEN NwChem

@<TRIPOS>ATOM
      1 C           0.7220    2.8804    0.0813 C.3     1  UNK1       -0.2599999999999998
      2 C           0.6600    1.7269   -0.9299 C.3     1  UNK1       -0.3700000000000001
      3 CA         -2.6359   -0.7016   -2.5424 C.3     2  GLY2       -0.2599999999999998
      4 C          -0.7779   -1.2767   -0.0499 C.3     1  UNK1       -0.4500000000000002
      5 C           0.6147    2.3761    1.5471 C.3     1  UNK1       -0.05999999999999961
      6 C           0.2153   -1.2570   -1.2248 C.3     1  UNK1       -0.040000000000000036
      7 C           1.7561    0.7019   -0.6449 C.2     1  UNK1       0.6200000000000001
      8 C          -3.1405   -2.1407   -2.5117 C.2     2  GLY2       0.5899999999999999
      9 C          -0.2289   -0.7092   -2.6132 C.2     1  UNK1       0.5199999999999996
     10 C           0.6675    3.5654    2.4921 C.2     1  UNK1       0.5800000000000001
     11 N          -0.5702    1.5547    1.7693 N.3     1  UNK1       -0.7599999999999998
     12 N          -1.3541   -0.5085   -3.1677 N.2     2  GLY2       -0.4900000000000002
     13 N           1.5215   -0.6480   -0.8983 N.am    1  UNK1       -0.6600000000000001
     14 O           2.8527    1.0614   -0.2406 O.2     1  UNK1       -0.5700000000000003
     15 O          -4.3096   -2.4593   -2.4844 O.2     2  GLY2       -0.5099999999999998
     16 OXT        -2.1353   -3.0478   -2.4739 O.3     2  GLY2       -0.5700000000000003
     17 O           0.8530   -0.4906   -3.4103 O.2     1  UNK1       -0.6300000000000008
     18 O          -0.2228    3.9238    3.2373 O.2     1  UNK1       -0.5199999999999996
     19 O           1.8376    4.2505    2.4046 O.3     1  UNK1       -0.5800000000000001
     20 S          -0.2817   -2.3870    1.3400 S.3     1  UNK1       -0.14999999999999858
     21 SE          1.4980   -1.4152    2.3865 Se      1  UNK1       -0.7700000000000031
     22 H          -0.1032    3.5748   -0.1284 H       1  UNK1       0.16000000000000003
     23 H           1.6646    3.4212   -0.0387 H       1  UNK1       0.16000000000000003
     24 H          -0.3321    1.2780   -0.9157 H       1  UNK1       0.18999999999999995
     25 H           0.8231    2.1147   -1.9449 H       1  UNK1       0.18999999999999995
     26 HA1        -2.7062   -0.3323   -1.5090 H       2  GLY2       0.20999999999999996
     27 HA2        -3.3898   -0.1478   -3.1129 H       2  GLY2       0.18999999999999995
     28 H          -0.9763   -0.2715    0.3309 H       1  UNK1       0.22999999999999998
     29 H          -1.7136   -1.7319   -0.3730 H       1  UNK1       0.19999999999999996
     30 H           1.5066    1.7679    1.7407 H       1  UNK1       0.18999999999999995
     31 H           0.4482   -2.3078   -1.4434 H       1  UNK1       0.21999999999999997
     32 H          -1.2395    2.0715    2.3372 H       1  UNK1       0.31999999999999995
     33 H          -0.2863    0.7189    2.2889 H       1  UNK1       0.33999999999999997
     34 HXT        -2.5568   -3.9224   -2.3831 H       2  GLY2       0.44999999999999996
     35 H           1.6356   -0.5907   -2.8258 H       1  UNK1       0.44999999999999996
     36 H           1.7545    4.9909    3.0341 H       1  UNK1       0.43999999999999995
     37 H           2.0895   -1.2155   -0.2629 H       1  UNK1           0.37
@<TRIPOS>BOND
     1    17    35    1
     2    17     9    1
     3    12     9    2
     4    12     3    1
     5    27     3    1
     6     9     6    1
     7     3     8    1
     8     3    26    1
     9     8    15    2
    10     8    16    1
    11    16    34    1
    12    25     2    1
    13    31     6    1
    14     6    13    1
    15     6     4    1
    16     2    24    1
    17     2     7    1
    18     2     1    1
    19    13     7   am
    20    13    37    1
    21     7    14    2
    22    29     4    1
    23    22     1    1
    24     4    28    1
    25     4    20    1
    26    23     1    1
    27     1     5    1
    28    20    21    1
    29     5    30    1
    30     5    11    1
    31     5    10    1
    32    11    33    1
    33    11    32    1
    34    19    10    1
    35    19    36    1
    36    10    18    2
