@<TRIPOS>MOLECULE
UVCQOKDZGIAHDG-UHFFFAOYSA-N	6045324	-2473.130060835438
 111 112 0 0 0
SMALL
MULLIKEN NwChem

@<TRIPOS>ATOM
      1 C           2.8822   -4.2971    6.8532 C.3     1  LIG1      -0.45999999999999996
      2 C           2.0247   -5.0367    4.5974 C.3     1  LIG1      -0.46999999999999975
      3 C          -0.8799   -0.2593    5.2758 C.3     1  LIG1      -0.4800000000000004
      4 C           3.7975    1.4207    1.9980 C.3     1  LIG1      -0.46999999999999975
      5 C           1.5530   -2.7617   -0.8471 C.3     1  LIG1      -0.4800000000000004
      6 C          -2.8923    1.0827   -0.1253 C.3     1  LIG1      -0.46999999999999975
      7 C           1.0438    4.7456   -1.7513 C.3     1  LIG1      -0.46999999999999975
      8 C          -1.0727    2.7028   -7.7261 C.3     1  LIG1      -0.5899999999999999
      9 C           0.4429   -2.3908    7.0488 C.3     1  LIG1      -0.28000000000000025
     10 C           2.8877    0.8494    4.9668 C.3     1  LIG1      -0.28000000000000025
     11 C           3.0082   -2.4305    1.8346 C.3     1  LIG1      -0.29000000000000004
     12 C          -1.4247   -1.3839    1.3334 C.3     1  LIG1      -0.28000000000000025
     13 C           0.7462    2.4480    0.2463 C.3     1  LIG1      -0.29000000000000004
     14 C           0.5889   -3.5301    6.0248 C.3     1  LIG1      -0.2599999999999998
     15 C           1.1091   -1.0625    6.6474 C.3     1  LIG1      -0.2699999999999996
     16 C           1.3485    0.8771    4.9990 C.3     1  LIG1      -0.2699999999999996
     17 C           3.5047   -0.1510    3.9737 C.3     1  LIG1      -0.28000000000000025
     18 C           3.6712   -1.0626    1.5934 C.3     1  LIG1      -0.2599999999999998
     19 C           1.4774   -2.4542    1.6790 C.3     1  LIG1      -0.29000000000000004
     20 C          -0.6133   -2.1259    0.2565 C.3     1  LIG1      -0.28000000000000025
     21 C          -1.1427    0.1226    1.4506 C.3     1  LIG1      -0.29000000000000004
     22 C          -0.7853    2.3821    0.3717 C.3     1  LIG1      -0.2699999999999996
     23 C           1.2887    2.2729   -1.1845 C.3     1  LIG1      -0.2699999999999996
     24 C           1.4031    3.0986   -3.6068 C.3     1  LIG1      -0.2599999999999998
     25 C           1.0524    1.7828   -4.3460 C.3     1  LIG1      -0.40000000000000036
     26 C          -4.5208    0.2574   -4.0351 C.ar    1  LIG1      -0.13999999999999968
     27 C          -4.5443   -0.8873   -3.3036 C.ar    1  LIG1      -0.3700000000000001
     28 C           2.0321   -3.9066    5.6360 C.3     1  LIG1      -0.08999999999999986
     29 C           0.6425   -0.4609    5.3072 C.3     1  LIG1      -0.08999999999999986
     30 C           3.1861    0.0984    2.4860 C.3     1  LIG1      -0.08999999999999986
     31 C           0.9216   -1.9857    0.3202 C.3     1  LIG1      -0.07000000000000028
     32 C          -1.3937    0.9744    0.1893 C.3     1  LIG1      -0.08999999999999986
     33 C           0.7821    3.3036   -2.2134 C.3     1  LIG1      -0.07000000000000028
     34 C          -0.4160    1.3990   -4.3249 C.ar    1  LIG1       0.15000000000000036
     35 C          -3.1865    0.7600   -4.2188 C.ar    1  LIG1       0.1299999999999999
     36 C          -2.7575    1.8863   -4.9460 C.ar    1  LIG1       0.28000000000000025
     37 C          -0.8534    0.2811   -3.6095 C.ar    1  LIG1       0.2599999999999998
     38 C          -1.3902    2.1769   -5.0225 C.ar    1  LIG1         -0.25
     39 C          -2.2191   -0.0388   -3.5833 C.ar    1  LIG1       -0.23000000000000043
     40 O          -3.7134    2.6184   -5.5806 O.3     1  LIG1      -0.6699999999999999
     41 O          -0.0411   -0.5758   -2.9036 O.3     1  LIG1      -0.6799999999999997
     42 S          -0.9263    3.5443   -6.0944 S.3     1  LIG1      0.03999999999999915
     43 S          -2.9532   -1.4195   -2.7958 S.2     1  LIG1      0.23000000000000043
     44 H           2.4273   -5.1413    7.3886 H       1  LIG1          0.14
     45 H           2.9880   -3.4694    7.5629 H       1  LIG1       0.15000000000000002
     46 H           3.8900   -4.6015    6.5464 H       1  LIG1          0.14
     47 H           1.5933   -5.9524    5.0230 H       1  LIG1          0.14
     48 H           1.4302   -4.7649    3.7180 H       1  LIG1       0.15000000000000002
     49 H           3.0400   -5.2728    4.2570 H       1  LIG1          0.14
     50 H          -1.2044    0.3782    6.1089 H       1  LIG1          0.14
     51 H          -1.1904    0.2248    4.3445 H       1  LIG1       0.15000000000000002
     52 H          -1.4222   -1.2076    5.3503 H       1  LIG1       0.15000000000000002
     53 H           4.8869    1.4152    2.1355 H       1  LIG1          0.14
     54 H           3.5973    1.5796    0.9322 H       1  LIG1       0.15000000000000002
     55 H           3.3956    2.2845    2.5380 H       1  LIG1       0.15000000000000002
     56 H           1.4234   -3.8431   -0.7057 H       1  LIG1          0.14
     57 H           1.0762   -2.4951   -1.7961 H       1  LIG1          0.14
     58 H           2.6276   -2.5676   -0.9376 H       1  LIG1       0.15000000000000002
     59 H          -3.4113    1.6482    0.6605 H       1  LIG1          0.13
     60 H          -3.0564    1.5977   -1.0790 H       1  LIG1          0.14
     61 H          -3.3656    0.0996   -0.2024 H       1  LIG1       0.15000000000000002
     62 H           2.1154    4.9124   -1.5782 H       1  LIG1          0.14
     63 H           0.7118    5.4656   -2.5081 H       1  LIG1          0.14
     64 H           0.5157    4.9791   -0.8218 H       1  LIG1       0.15000000000000002
     65 H          -0.8523    3.4460   -8.4976 H       1  LIG1       0.19999999999999996
     66 H          -0.3550    1.8818   -7.7939 H       1  LIG1       0.19999999999999996
     67 H          -2.0871    2.3204   -7.8644 H       1  LIG1       0.19999999999999996
     68 H          -0.6259   -2.2260    7.2347 H       1  LIG1          0.13
     69 H           0.8620   -2.7102    8.0118 H       1  LIG1          0.13
     70 H           3.2463    1.8623    4.7437 H       1  LIG1          0.13
     71 H           3.2689    0.6193    5.9698 H       1  LIG1          0.13
     72 H           3.4565   -3.1557    1.1437 H       1  LIG1          0.13
     73 H           3.2571   -2.7943    2.8394 H       1  LIG1          0.14
     74 H          -2.4906   -1.5438    1.1243 H       1  LIG1          0.13
     75 H          -1.2450   -1.8405    2.3161 H       1  LIG1          0.13
     76 H           1.1014    3.4033    0.6517 H       1  LIG1          0.13
     77 H           1.1972    1.6781    0.8821 H       1  LIG1       0.15000000000000002
     78 H           0.0407   -3.2687    5.1088 H       1  LIG1          0.14
     79 H           0.0929   -4.4264    6.4266 H       1  LIG1          0.12
     80 H           0.9260   -0.3232    7.4419 H       1  LIG1          0.12
     81 H           2.1957   -1.2101    6.6187 H       1  LIG1          0.14
     82 H           0.9721    1.2500    4.0361 H       1  LIG1          0.13
     83 H           1.0315    1.6168    5.7494 H       1  LIG1          0.12
     84 H           4.5982   -0.1443    4.0957 H       1  LIG1          0.12
     85 H           3.1809   -1.1602    4.2512 H       1  LIG1       0.16000000000000003
     86 H           3.5181   -0.7758    0.5437 H       1  LIG1          0.13
     87 H           4.7591   -1.1694    1.7189 H       1  LIG1          0.12
     88 H           1.1286   -3.4833    1.8501 H       1  LIG1          0.13
     89 H           1.0291   -1.8520    2.4778 H       1  LIG1       0.16000000000000003
     90 H          -0.9395   -1.7887   -0.7325 H       1  LIG1       0.15000000000000002
     91 H          -0.8650   -3.1961    0.3108 H       1  LIG1          0.12
     92 H          -1.7642    0.5337    2.2593 H       1  LIG1          0.13
     93 H          -0.1050    0.2571    1.7800 H       1  LIG1       0.16000000000000003
     94 H          -1.2397    3.0716   -0.3514 H       1  LIG1          0.14
     95 H          -1.0791    2.7578    1.3631 H       1  LIG1          0.12
     96 H           2.3881    2.3245   -1.1509 H       1  LIG1          0.13
     97 H           1.0394    1.2630   -1.5305 H       1  LIG1          0.12
     98 H           1.0905    3.9317   -4.2444 H       1  LIG1       0.15000000000000002
     99 H           2.4984    3.1658   -3.5323 H       1  LIG1          0.14
    100 H           1.3822    1.8855   -5.3870 H       1  LIG1       0.18000000000000005
    101 H           1.6666    0.9690   -3.9389 H       1  LIG1       0.16000000000000003
    102 H          -5.3986    0.7448   -4.4412 H       1  LIG1       0.18000000000000005
    103 H          -5.4107   -1.4707   -3.0194 H       1  LIG1       0.20999999999999996
    104 H           2.4990   -3.0287    5.1673 H       1  LIG1       0.15000000000000002
    105 H           0.8994   -1.1692    4.5080 H       1  LIG1       0.15000000000000002
    106 H           2.0961    0.1713    2.3746 H       1  LIG1       0.15000000000000002
    107 H           1.1687   -0.9215    0.1886 H       1  LIG1          0.14
    108 H          -0.9059    0.4916   -0.6666 H       1  LIG1       0.15000000000000002
    109 H          -0.3035    3.1763   -2.3214 H       1  LIG1          0.13
    110 H          -3.2745    3.4292   -5.9116 H       1  LIG1       0.44999999999999996
    111 H           0.8797   -0.2818   -2.9522 H       1  LIG1       0.45999999999999996
@<TRIPOS>BOND
     1    65     8    1
     2    67     8    1
     3    66     8    1
     4     8    42    1
     5    42    38    1
     6   110    40    1
     7    40    36    1
     8   100    25    1
     9    38    36   ar
    10    38    34   ar
    11    36    35   ar
    12   102    26    1
    13    25    34    1
    14    25   101    1
    15    25    24    1
    16    34    37   ar
    17    98    24    1
    18    35    26   ar
    19    35    39   ar
    20    26    27   ar
    21    37    39   ar
    22    37    41    1
    23    24    99    1
    24    24    33    1
    25    39    43   ar
    26    27   103    1
    27    27    43   ar
    28   111    41    1
    29    63     7    1
    30   109    33    1
    31    33     7    1
    32    33    23    1
    33    57     5    1
    34     7    62    1
    35     7    64    1
    36    97    23    1
    37    23    96    1
    38    23    13    1
    39    60     6    1
    40    58     5    1
    41     5    56    1
    42     5    31    1
    43    90    20    1
    44   108    32    1
    45    94    22    1
    46    61     6    1
    47     6    32    1
    48     6    59    1
    49   107    31    1
    50    32    22    1
    51    32    21    1
    52    13    22    1
    53    13    76    1
    54    13    77    1
    55    20    91    1
    56    20    31    1
    57    20    12    1
    58    31    19    1
    59    22    95    1
    60    86    18    1
    61    54     4    1
    62    74    12    1
    63    72    11    1
    64    12    21    1
    65    12    75    1
    66    21    93    1
    67    21    92    1
    68    18    87    1
    69    18    11    1
    70    18    30    1
    71    19    11    1
    72    19    88    1
    73    19    89    1
    74    11    73    1
    75     4    53    1
    76     4    30    1
    77     4    55    1
    78   106    30    1
    79    30    17    1
    80    48     2    1
    81    17    84    1
    82    17    85    1
    83    17    10    1
    84    82    16    1
    85    49     2    1
    86    51     3    1
    87   105    29    1
    88     2    47    1
    89     2    28    1
    90    70    10    1
    91    10    16    1
    92    10    71    1
    93    16    29    1
    94    16    83    1
    95    78    14    1
    96   104    28    1
    97     3    29    1
    98     3    52    1
    99     3    50    1
   100    29    15    1
   101    28    14    1
   102    28     1    1
   103    14    79    1
   104    14     9    1
   105    46     1    1
   106    81    15    1
   107    15     9    1
   108    15    80    1
   109     1    44    1
   110     1    45    1
   111     9    68    1
   112     9    69    1
