@<TRIPOS>MOLECULE
UVNXFLZMQCAWCP-RCTKLBHESA-N	6045326	-1209.784187042769
 80 83 0 0 0
SMALL
MULLIKEN NwChem

@<TRIPOS>ATOM
      1 C           6.3039   -3.7437   -0.3427 C.3     1  LIG1      -0.45999999999999996
      2 C           3.8001   -4.0347   -0.5483 C.3     1  LIG1      -0.46999999999999975
      3 C           3.9255    2.1707    0.5541 C.3     1  LIG1      -0.4800000000000004
      4 C          -6.1578   -0.0220   -0.3316 C.3     1  LIG1      -0.4800000000000004
      5 C          -5.3201   -1.7360    1.2742 C.3     1  LIG1      -0.45999999999999996
      6 C           0.5120    2.1821   -2.4445 C.3     1  LIG1      -0.4900000000000002
      7 C          -2.1188   -0.4620    2.1869 C.3     1  LIG1         -0.5
      8 C           5.5232   -0.6503    0.3809 C.3     1  LIG1      -0.28000000000000025
      9 C           4.7275   -1.9584    0.5552 C.3     1  LIG1      -0.2599999999999998
     10 C           4.9432    0.2841   -0.6992 C.3     1  LIG1      -0.28000000000000025
     11 C          -1.7352   -0.9664   -1.1064 C.2     1  LIG1      -0.23000000000000043
     12 C           2.4850   -0.0920   -2.4196 C.3     1  LIG1      -0.3099999999999996
     13 C           1.0721   -0.6948   -2.2014 C.3     1  LIG1      -0.2999999999999998
     14 C          -3.1423   -1.1680   -0.6209 C.3     1  LIG1      -0.3200000000000003
     15 C          -0.2283    1.6936    1.0344 C.3     1  LIG1      -0.29000000000000004
     16 C          -4.7185    2.0231    1.7720 C.3     1  LIG1      -0.3200000000000003
     17 C           0.7177    2.3988    0.0405 C.3     1  LIG1      -0.3200000000000003
     18 C          -3.2077    1.8204    1.9568 C.3     1  LIG1      -0.2999999999999998
     19 C           4.9593   -3.0257   -0.5353 C.3     1  LIG1      -0.05999999999999961
     20 C           3.5808    0.9145   -0.2819 C.3     1  LIG1      -0.08000000000000007
     21 C          -0.9349    0.0140   -0.6777 C.2     1  LIG1      0.17999999999999972
     22 C           2.6275    1.1790   -1.4955 C.3     1  LIG1      -0.09999999999999964
     23 C           0.5359    0.0788   -1.0001 C.3     1  LIG1      -0.17999999999999972
     24 C          -1.4334    1.0859    0.2856 C.3     1  LIG1      -0.17999999999999972
     25 C          -3.6944    0.0180    0.1963 C.3     1  LIG1      -0.1200000000000001
     26 C          -5.4682    0.7036    1.9458 C.3     1  LIG1       0.13999999999999968
     27 C          -5.1259   -0.2821    0.7920 C.3     1  LIG1      0.09999999999999964
     28 C           1.1125    1.5097   -1.1848 C.3     1  LIG1      0.1200000000000001
     29 C          -2.6183    0.5934    1.1796 C.3     1  LIG1      0.1299999999999999
     30 O          -5.1354    0.1028    3.2062 O.3     1  LIG1      -0.6699999999999999
     31 H           6.3196   -4.2763    0.6184 H       1  LIG1          0.14
     32 H           7.1486   -3.0434   -0.3499 H       1  LIG1       0.15000000000000002
     33 H           6.4740   -4.4802   -1.1367 H       1  LIG1          0.14
     34 H           3.6887   -4.5165    0.4324 H       1  LIG1          0.14
     35 H           2.8503   -3.5388   -0.7846 H       1  LIG1       0.15000000000000002
     36 H           3.9611   -4.8257   -1.2899 H       1  LIG1          0.14
     37 H           4.0568    3.0463   -0.0947 H       1  LIG1          0.14
     38 H           3.1761    2.4194    1.3068 H       1  LIG1       0.16000000000000003
     39 H           4.8689    2.0260    1.0939 H       1  LIG1       0.15000000000000002
     40 H          -5.9066   -0.5807   -1.2397 H       1  LIG1       0.15000000000000002
     41 H          -7.1627   -0.3304   -0.0178 H       1  LIG1          0.14
     42 H          -6.2010    1.0422   -0.5974 H       1  LIG1       0.15000000000000002
     43 H          -4.5432   -2.0562    1.9701 H       1  LIG1       0.15000000000000002
     44 H          -6.2792   -1.8307    1.7937 H       1  LIG1          0.14
     45 H          -5.3339   -2.4285    0.4254 H       1  LIG1          0.14
     46 H           0.8740    3.2142   -2.5207 H       1  LIG1          0.14
     47 H           0.7737    1.6755   -3.3789 H       1  LIG1       0.15000000000000002
     48 H          -0.5823    2.2106   -2.3801 H       1  LIG1       0.15000000000000002
     49 H          -1.3805   -0.0147    2.8619 H       1  LIG1          0.14
     50 H          -2.9432   -0.8260    2.8031 H       1  LIG1       0.16000000000000003
     51 H          -1.6398   -1.3085    1.6850 H       1  LIG1          0.14
     52 H           5.5574   -0.1188    1.3410 H       1  LIG1          0.13
     53 H           6.5682   -0.8842    0.1368 H       1  LIG1          0.14
     54 H           3.6559   -1.7207    0.5930 H       1  LIG1          0.14
     55 H           4.9616   -2.4101    1.5317 H       1  LIG1          0.13
     56 H           5.6539    1.0953   -0.9048 H       1  LIG1          0.13
     57 H           4.8706   -0.2755   -1.6334 H       1  LIG1          0.14
     58 H          -1.3461   -1.7287   -1.7799 H       1  LIG1          0.12
     59 H           2.6460    0.1718   -3.4693 H       1  LIG1          0.14
     60 H           3.2333   -0.8484   -2.1824 H       1  LIG1       0.15000000000000002
     61 H           1.1131   -1.7724   -2.0143 H       1  LIG1          0.14
     62 H           0.4253   -0.5447   -3.0721 H       1  LIG1          0.13
     63 H          -3.1524   -2.0884   -0.0194 H       1  LIG1       0.15000000000000002
     64 H          -3.8088   -1.3757   -1.4703 H       1  LIG1          0.14
     65 H           0.3086    0.9136    1.5868 H       1  LIG1          0.14
     66 H          -0.5652    2.4205    1.7804 H       1  LIG1          0.14
     67 H          -4.9294    2.4334    0.7764 H       1  LIG1       0.15000000000000002
     68 H          -5.0853    2.7676    2.4931 H       1  LIG1          0.14
     69 H           1.5864    2.7742    0.5734 H       1  LIG1          0.14
     70 H           0.1974    3.2936   -0.3257 H       1  LIG1          0.13
     71 H          -3.0023    1.6998    3.0252 H       1  LIG1          0.13
     72 H          -2.7017    2.7446    1.6537 H       1  LIG1          0.14
     73 H           4.9771   -2.5286   -1.5171 H       1  LIG1          0.13
     74 H           3.0687    0.1967    0.3732 H       1  LIG1          0.13
     75 H           3.0711    2.0054   -2.0694 H       1  LIG1       0.10999999999999999
     76 H           1.0467   -0.3310   -0.1121 H       1  LIG1       0.15000000000000002
     77 H          -1.8425    1.9093   -0.3261 H       1  LIG1          0.13
     78 H          -3.8501    0.8295   -0.5307 H       1  LIG1          0.12
     79 H          -6.5547    0.8839    1.9222 H       1  LIG1          0.12
     80 H          -5.3210    0.7606    3.8939 H       1  LIG1       0.42000000000000004
@<TRIPOS>BOND
     1    59    12    1
     2    47     6    1
     3    62    13    1
     4    46     6    1
     5     6    48    1
     6     6    28    1
     7    12    13    1
     8    12    60    1
     9    12    22    1
    10    13    61    1
    11    13    23    1
    12    75    22    1
    13    58    11    1
    14    57    10    1
    15    73    19    1
    16    22    28    1
    17    22    20    1
    18    64    14    1
    19    36     2    1
    20    40     4    1
    21    28    23    1
    22    28    17    1
    23    33     1    1
    24    11    21    2
    25    11    14    1
    26    23    21    1
    27    23    76    1
    28    56    10    1
    29    35     2    1
    30    10    20    1
    31    10     8    1
    32    21    24    1
    33    14    63    1
    34    14    25    1
    35    42     4    1
    36     2    19    1
    37     2    34    1
    38    19     1    1
    39    19     9    1
    40    78    25    1
    41    32     1    1
    42     1    31    1
    43     4    41    1
    44     4    27    1
    45    77    24    1
    46    70    17    1
    47    20    74    1
    48    20     3    1
    49    37     3    1
    50    17    69    1
    51    17    15    1
    52    53     8    1
    53    25    27    1
    54    25    29    1
    55    24    15    1
    56    24    29    1
    57     8     9    1
    58     8    52    1
    59    45     5    1
    60     3    39    1
    61     3    38    1
    62     9    54    1
    63     9    55    1
    64    67    16    1
    65    27     5    1
    66    27    26    1
    67    15    65    1
    68    15    66    1
    69    29    18    1
    70    29     7    1
    71     5    44    1
    72     5    43    1
    73    72    18    1
    74    51     7    1
    75    16    26    1
    76    16    18    1
    77    16    68    1
    78    79    26    1
    79    26    30    1
    80    18    71    1
    81     7    50    1
    82     7    49    1
    83    30    80    1
