@<TRIPOS>MOLECULE
UVSRXDFMOZKKGE-WKYRUEGDSA-N	6045327	-1285.0231645137903
 81 84 0 0 0
SMALL
MULLIKEN NwChem

@<TRIPOS>ATOM
      1 C          -5.1751    4.6734   -0.1810 C.3     1  LIG1      -0.45999999999999996
      2 C          -3.3587    5.8411   -1.4891 C.3     1  LIG1      -0.45999999999999996
      3 C          -0.4445    4.4841    3.2002 C.3     1  LIG1      -0.46999999999999975
      4 C          -1.5444    1.5573   -0.0898 C.3     1  LIG1         -0.5
      5 C           3.4782   -1.7119   -0.7702 C.3     1  LIG1         -0.5
      6 C           1.1114   -5.7497   -1.5469 C.3     1  LIG1      -0.46999999999999975
      7 C          -3.3712    4.9516    2.3449 C.3     1  LIG1      -0.28000000000000025
      8 C          -3.1761    5.7099    1.0221 C.3     1  LIG1      -0.2599999999999998
      9 C          -2.6868    3.5742    2.4359 C.3     1  LIG1      -0.28000000000000025
     10 C           0.3155   -2.5898    1.2016 C.3     1  LIG1      -0.34999999999999964
     11 C          -1.0730    1.1608    3.2956 C.3     1  LIG1      -0.29000000000000004
     12 C          -0.3407   -0.1365    2.9404 C.3     1  LIG1      -0.29000000000000004
     13 C           1.3274   -3.5589    0.5894 C.3     1  LIG1      -0.29000000000000004
     14 C           1.2757    0.5950   -0.8577 C.3     1  LIG1      -0.3600000000000003
     15 C           2.4321   -2.7053   -3.6020 C.3     1  LIG1      -0.29000000000000004
     16 C           0.9484    1.5773    0.2641 C.3     1  LIG1      -0.29000000000000004
     17 C           1.8494   -1.5983   -2.7126 C.3     1  LIG1      -0.3099999999999996
     18 C           3.4409   -4.9058   -1.5744 C.3     1  LIG1       -0.07000000000000028
     19 C          -3.6754    4.9946   -0.2480 C.3     1  LIG1      -0.07000000000000028
     20 C          -1.1612    3.5627    2.1960 C.3     1  LIG1      -0.08000000000000007
     21 C           0.4228   -1.1724    0.6764 C.2     1  LIG1      0.08999999999999986
     22 C          -0.5226    2.1466    2.2507 C.3     1  LIG1      -0.09999999999999964
     23 C          -0.4811   -0.1882    1.3988 C.3     1  LIG1      -0.17999999999999972
     24 C           1.1760   -0.8475   -0.3934 C.2     1  LIG1      0.08000000000000007
     25 C           1.4184   -3.3103   -0.9232 C.3     1  LIG1      -0.15000000000000036
     26 C           1.8205   -4.0815   -3.3007 C.3     1  LIG1       0.1200000000000001
     27 C          -0.4155    1.3042    0.9222 C.3     1  LIG1      0.11000000000000032
     28 C           1.9959   -1.8827   -1.1920 C.3     1  LIG1      0.04999999999999982
     29 C           1.9648   -4.4884   -1.8022 C.3     1  LIG1       0.05999999999999961
     30 O           3.7706   -5.2102   -0.2242 O.3     1  LIG1      -0.6699999999999999
     31 O           0.4635   -4.1373   -3.7520 O.3     1  LIG1      -0.6899999999999995
     32 H          -5.7624    5.5894   -0.0310 H       1  LIG1          0.14
     33 H          -5.4108    3.9874    0.6398 H       1  LIG1       0.15000000000000002
     34 H          -5.5192    4.2065   -1.1115 H       1  LIG1          0.14
     35 H          -3.8804    6.8062   -1.4435 H       1  LIG1          0.14
     36 H          -2.2844    6.0475   -1.5691 H       1  LIG1          0.14
     37 H          -3.6738    5.3353   -2.4097 H       1  LIG1          0.14
     38 H          -0.5978    4.1329    4.2292 H       1  LIG1          0.14
     39 H           0.6351    4.5025    3.0116 H       1  LIG1          0.14
     40 H          -0.8054    5.5160    3.1439 H       1  LIG1       0.15000000000000002
     41 H          -1.4836    0.8429   -0.9185 H       1  LIG1       0.15000000000000002
     42 H          -2.5295    1.4287    0.3696 H       1  LIG1       0.15000000000000002
     43 H          -1.4958    2.5647   -0.5175 H       1  LIG1       0.15000000000000002
     44 H           3.7956   -0.6739   -0.9160 H       1  LIG1       0.16000000000000003
     45 H           3.6203   -1.9354    0.2921 H       1  LIG1       0.15000000000000002
     46 H           4.1638   -2.3327   -1.3509 H       1  LIG1       0.15000000000000002
     47 H           1.2807   -6.4841   -2.3424 H       1  LIG1          0.14
     48 H           1.3855   -6.2145   -0.5960 H       1  LIG1       0.15000000000000002
     49 H           0.0414   -5.5237   -1.5393 H       1  LIG1       0.15000000000000002
     50 H          -3.0175    5.5901    3.1639 H       1  LIG1          0.13
     51 H          -4.4439    4.8106    2.5306 H       1  LIG1          0.13
     52 H          -2.1109    5.9474    0.8940 H       1  LIG1          0.13
     53 H          -3.6915    6.6792    1.0969 H       1  LIG1          0.12
     54 H          -2.8844    3.1714    3.4379 H       1  LIG1          0.13
     55 H          -3.1745    2.8870    1.7360 H       1  LIG1       0.15000000000000002
     56 H           0.4245   -2.5891    2.2936 H       1  LIG1       0.15000000000000002
     57 H          -0.7081   -2.9546    1.0135 H       1  LIG1          0.14
     58 H          -0.9048    1.4934    4.3261 H       1  LIG1          0.13
     59 H          -2.1535    1.0139    3.1700 H       1  LIG1          0.14
     60 H          -0.7606   -1.0175    3.4360 H       1  LIG1          0.14
     61 H           0.7185   -0.0681    3.2250 H       1  LIG1          0.13
     62 H           1.0386   -4.5887    0.8111 H       1  LIG1          0.14
     63 H           2.2987   -3.4062    1.0730 H       1  LIG1          0.14
     64 H           0.6210    0.7644   -1.7246 H       1  LIG1       0.15000000000000002
     65 H           2.2887    0.8055   -1.2216 H       1  LIG1       0.15000000000000002
     66 H           2.2401   -2.4721   -4.6555 H       1  LIG1          0.14
     67 H           3.5215   -2.7472   -3.4859 H       1  LIG1       0.15000000000000002
     68 H           0.9830    2.6124   -0.1038 H       1  LIG1          0.13
     69 H           1.7324    1.4852    1.0278 H       1  LIG1          0.13
     70 H           2.3188   -0.6443   -2.9739 H       1  LIG1       0.15000000000000002
     71 H           0.7804   -1.4781   -2.9424 H       1  LIG1          0.14
     72 H           3.6114   -5.8355   -2.1295 H       1  LIG1       0.15000000000000002
     73 H           4.1419   -4.1693   -1.9845 H       1  LIG1       0.15000000000000002
     74 H          -3.1325    4.0446   -0.3441 H       1  LIG1          0.14
     75 H          -0.9664    3.9677    1.1932 H       1  LIG1          0.13
     76 H           0.5211    2.3156    2.5499 H       1  LIG1          0.12
     77 H          -1.5102   -0.5405    1.2132 H       1  LIG1          0.13
     78 H           0.3647   -3.2295   -1.2439 H       1  LIG1          0.12
     79 H           2.3244   -4.8409   -3.9115 H       1  LIG1          0.13
     80 H           3.8367   -4.3703    0.2527 H       1  LIG1       0.43000000000000005
     81 H          -0.0522   -3.5012   -3.2333 H       1  LIG1       0.43000000000000005
@<TRIPOS>BOND
     1    66    15    1
     2    79    26    1
     3    31    26    1
     4    31    81    1
     5    15    67    1
     6    15    26    1
     7    15    17    1
     8    26    29    1
     9    70    17    1
    10    71    17    1
    11    17    28    1
    12    37     2    1
    13    47     6    1
    14    72    18    1
    15    73    18    1
    16    29    18    1
    17    29     6    1
    18    29    25    1
    19    64    14    1
    20    18    30    1
    21    36     2    1
    22     6    49    1
    23     6    48    1
    24     2    35    1
    25     2    19    1
    26    46     5    1
    27    78    25    1
    28    65    14    1
    29    28    25    1
    30    28     5    1
    31    28    24    1
    32    34     1    1
    33    25    13    1
    34    41     4    1
    35    44     5    1
    36    14    24    1
    37    14    16    1
    38     5    45    1
    39    43     4    1
    40    24    21    2
    41    74    19    1
    42    19     1    1
    43    19     8    1
    44    30    80    1
    45     1    32    1
    46     1    33    1
    47    68    16    1
    48     4    42    1
    49     4    27    1
    50    16    27    1
    51    16    69    1
    52    13    62    1
    53    13    63    1
    54    13    10    1
    55    21    10    1
    56    21    23    1
    57    52     8    1
    58    27    23    1
    59    27    22    1
    60    57    10    1
    61     8    53    1
    62     8     7    1
    63    75    20    1
    64    10    56    1
    65    77    23    1
    66    23    12    1
    67    55     9    1
    68    20    22    1
    69    20     9    1
    70    20     3    1
    71    22    76    1
    72    22    11    1
    73     7     9    1
    74     7    51    1
    75     7    50    1
    76     9    54    1
    77    12    61    1
    78    12    11    1
    79    12    60    1
    80    39     3    1
    81    40     3    1
    82    59    11    1
    83     3    38    1
    84    11    58    1
