@<TRIPOS>MOLECULE
UWHZIFQPPBDJPM-FPLPWBNLSA-M	6045328	-855.9848536821252
 53 52 0 0 0
SMALL
MULLIKEN NwChem

@<TRIPOS>ATOM
      1 C           5.1293   -7.0262   -0.6613 C.3     1  LIG1      -0.45999999999999996
      2 C           5.3296   -5.7237    0.1219 C.3     1  LIG1      -0.2599999999999998
      3 C           5.2587   -4.4568   -0.7474 C.3     1  LIG1      -0.2599999999999998
      4 C           3.9333   -4.2502   -1.5021 C.3     1  LIG1      -0.2599999999999998
      5 C           2.6741   -4.2321   -0.6200 C.3     1  LIG1      -0.2599999999999998
      6 C           2.6799   -3.1600    0.4928 C.3     1  LIG1      -0.3099999999999996
      7 C           2.8881   -1.7593   -0.0305 C.2     1  LIG1      -0.1299999999999999
      8 C           1.9302   -0.8735   -0.3310 C.2     1  LIG1      -0.1299999999999999
      9 C           0.4433   -1.0600   -0.1806 C.3     1  LIG1      -0.3200000000000003
     10 C          -0.1544   -0.2941    1.0222 C.3     1  LIG1      -0.2599999999999998
     11 C           0.1139    1.2202    1.0266 C.3     1  LIG1      -0.2699999999999996
     12 C          -0.3510    1.9672   -0.2357 C.3     1  LIG1      -0.2699999999999996
     13 C          -1.8404    1.7947   -0.5840 C.3     1  LIG1      -0.2699999999999996
     14 C          -2.8248    2.1967    0.5271 C.3     1  LIG1      -0.2699999999999996
     15 C          -2.6816    3.6436    1.0309 C.3     1  LIG1      -0.2699999999999996
     16 C          -2.8322    4.7268   -0.0549 C.3     1  LIG1        -0.25
     17 C          -4.1004    4.5639   -0.9099 C.3     1  LIG1       -0.33999999999999986
     18 C          -5.3668    4.3989    0.0059 C.2     1  LIG1       0.5300000000000002
     19 O          -5.5838    5.3711    0.7740 O.co2   1  LIG1      -0.6799999999999997
     20 O          -5.9804    3.3037   -0.0963 O.co2   1  LIG1      -0.6799999999999997
     21 H           4.1263   -7.0822   -1.0989 H       1  LIG1       0.15000000000000002
     22 H           5.2572   -7.9027   -0.0152 H       1  LIG1          0.14
     23 H           5.8531   -7.1065   -1.4826 H       1  LIG1          0.14
     24 H           4.5820   -5.6633    0.9240 H       1  LIG1          0.14
     25 H           6.3070   -5.7504    0.6230 H       1  LIG1          0.13
     26 H           5.4541   -3.5827   -0.1114 H       1  LIG1          0.14
     27 H           6.0772   -4.4849   -1.4816 H       1  LIG1          0.13
     28 H           3.9923   -3.3029   -2.0534 H       1  LIG1          0.13
     29 H           3.8189   -5.0350   -2.2619 H       1  LIG1          0.13
     30 H           1.8029   -4.0548   -1.2638 H       1  LIG1          0.13
     31 H           2.5255   -5.2203   -0.1623 H       1  LIG1          0.14
     32 H           1.7361   -3.2270    1.0453 H       1  LIG1          0.14
     33 H           3.4721   -3.3942    1.2169 H       1  LIG1       0.15000000000000002
     34 H           3.9254   -1.4698   -0.2031 H       1  LIG1          0.14
     35 H           2.2398    0.1031   -0.7035 H       1  LIG1          0.14
     36 H          -0.0493   -0.7144   -1.0993 H       1  LIG1       0.15000000000000002
     37 H           0.1944   -2.1233   -0.0831 H       1  LIG1       0.15000000000000002
     38 H          -1.2368   -0.4718    1.0390 H       1  LIG1          0.14
     39 H           0.2500   -0.7299    1.9466 H       1  LIG1          0.13
     40 H          -0.3848    1.6534    1.9023 H       1  LIG1          0.14
     41 H           1.1897    1.3947    1.1717 H       1  LIG1          0.13
     42 H          -0.1365    3.0349   -0.1006 H       1  LIG1          0.14
     43 H           0.2583    1.6472   -1.0949 H       1  LIG1          0.13
     44 H          -2.0527    2.3893   -1.4814 H       1  LIG1          0.13
     45 H          -2.0306    0.7488   -0.8685 H       1  LIG1          0.13
     46 H          -3.8529    2.0730    0.1663 H       1  LIG1          0.12
     47 H          -2.7108    1.5103    1.3806 H       1  LIG1          0.13
     48 H          -3.4663    3.8188    1.7757 H       1  LIG1          0.12
     49 H          -1.7171    3.7761    1.5484 H       1  LIG1          0.13
     50 H          -2.8937    5.6981    0.4509 H       1  LIG1          0.12
     51 H          -1.9328    4.7492   -0.6937 H       1  LIG1          0.13
     52 H          -4.2169    5.4613   -1.5357 H       1  LIG1          0.12
     53 H          -4.0148    3.6991   -1.5805 H       1  LIG1       0.10999999999999999
@<TRIPOS>BOND
     1    29     4    1
     2    28     4    1
     3    53    17    1
     4    52    17    1
     5     4     3    1
     6     4     5    1
     7    23     1    1
     8    27     3    1
     9    44    13    1
    10    30     5    1
    11    36     9    1
    12    21     1    1
    13    43    12    1
    14    17    16    1
    15    17    18    1
    16    45    13    1
    17     3    26    1
    18     3     2    1
    19    35     8    1
    20    51    16    1
    21     1    22    1
    22     1     2    1
    23     5    31    1
    24     5     6    1
    25    13    12    1
    26    13    14    1
    27     8     9    1
    28     8     7    2
    29    12    42    1
    30    12    11    1
    31    34     7    1
    32     9    37    1
    33     9    10    1
    34    20    18   ar
    35    16    50    1
    36    16    15    1
    37     7     6    1
    38    18    19   ar
    39     2    25    1
    40     2    24    1
    41    46    14    1
    42     6    32    1
    43     6    33    1
    44    14    15    1
    45    14    47    1
    46    10    11    1
    47    10    38    1
    48    10    39    1
    49    11    41    1
    50    11    40    1
    51    15    49    1
    52    15    48    1
