@<TRIPOS>MOLECULE
UYDZYCPIQSRXKU-NPPUSCPJSA-M	6045329	-952.9823412284652
 36 36 0 0 0
SMALL
MULLIKEN NwChem

@<TRIPOS>ATOM
      1 C          -1.6663    0.4940    5.1141 C.2     1  LIG1      -0.4800000000000004
      2 C           1.9965   -0.4919   -0.2367 C.3     1  LIG1      -0.2699999999999996
      3 C           0.7580    0.1102   -0.9277 C.3     1  LIG1       -0.34999999999999964
      4 C          -3.5004    0.2627    3.1638 C.3     1  LIG1      -0.3899999999999997
      5 C          -1.4432    0.3992    1.5130 C.3     1  LIG1      -0.29000000000000004
      6 C          -2.3056    0.5963    3.9595 C.2     1  LIG1      0.1900000000000004
      7 C          -2.3235    1.0582    2.5656 C.3     1  LIG1      -0.16000000000000014
      8 CA          2.8061   -1.5088   -1.0770 C.3     1  LIG1       -0.05999999999999961
      9 CA         -2.0475    0.3369    0.0624 C.3     1  LIG1       -0.04999999999999982
     10 C          -0.3755   -0.9424   -1.1406 C.2     1  LIG1       0.4900000000000002
     11 C           3.5547   -0.7806   -2.1841 C.2     1  LIG1       0.5800000000000001
     12 C          -1.9945    1.7105   -0.6317 C.2     1  LIG1       0.5700000000000003
     13 N           3.7382   -2.2411   -0.2070 N.3     1  LIG1      -0.7599999999999998
     14 N          -1.6266   -0.7819   -0.7186 N.am    1  LIG1      -0.6100000000000003
     15 O          -0.0045   -1.9699   -1.7716 O.2     1  LIG1      -0.6899999999999995
     16 OXT         4.7133   -0.4017   -2.1117 O.2     1  LIG1      -0.5299999999999994
     17 O           2.8142   -0.5602   -3.2963 O.3     1  LIG1      -0.5800000000000001
     18 O          -1.5066    1.9973   -1.7020 O.2     1  LIG1      -0.5199999999999996
     19 OXT        -2.6709    2.6838    0.0844 O.3     1  LIG1      -0.5999999999999996
     20 H          -2.0985   -0.0346    5.9627 H       1  LIG1       0.15000000000000002
     21 H          -0.6777    0.9270    5.2574 H       1  LIG1       0.15000000000000002
     22 H           2.6791    0.3081    0.0950 H       1  LIG1          0.14
     23 H           1.6893   -1.0361    0.6647 H       1  LIG1          0.14
     24 H           1.0247    0.4922   -1.9188 H       1  LIG1          0.14
     25 H           0.4432    0.9824   -0.3492 H       1  LIG1          0.13
     26 H          -3.6297   -0.7652    2.8237 H       1  LIG1       0.17000000000000004
     27 H          -4.4360    0.7862    3.3612 H       1  LIG1       0.17000000000000004
     28 H          -0.4568    0.8767    1.5123 H       1  LIG1       0.16000000000000003
     29 H          -1.2808   -0.6495    1.7852 H       1  LIG1       0.15000000000000002
     30 H          -2.5181    2.1165    2.4001 H       1  LIG1       0.17000000000000004
     31 HA          2.0609   -2.1811   -1.5158 H       1  LIG1       0.18000000000000005
     32 HA         -3.1332    0.2156    0.2348 H       1  LIG1       0.15000000000000002
     33 H1          4.1890   -2.9711   -0.7601 H       1  LIG1       0.32999999999999996
     34 H2          4.4967   -1.6005    0.0360 H       1  LIG1       0.31999999999999995
     35 H           3.3881   -0.0429   -3.8927 H       1  LIG1       0.43999999999999995
     36 HXT        -2.5930    3.4834   -0.4692 H       1  LIG1       0.43000000000000005
@<TRIPOS>BOND
     1    35    17    1
     2    17    11    1
     3    11    16    2
     4    11     8    1
     5    24     3    1
     6    15    10    2
     7    18    12    2
     8    31     8    1
     9    10     3    1
    10    10    14   am
    11     8     2    1
    12     8    13    1
    13     3    25    1
    14     3     2    1
    15    33    13    1
    16    14     9    1
    17    12     9    1
    18    12    19    1
    19    36    19    1
    20     2    22    1
    21     2    23    1
    22    13    34    1
    23     9    32    1
    24     9     5    1
    25    28     5    1
    26     5    29    1
    27     5     7    1
    28    30     7    1
    29     7     4    1
    30     7     6    1
    31    26     4    1
    32     4    27    1
    33     4     6    1
    34     6     1    2
    35     1    21    1
    36     1    20    1
