@<TRIPOS>MOLECULE
UYTPUPDQBNUYGX-UHFFFAOYSA-N	6045331	-542.4534447945312
 16 17 0 0 0
SMALL
MULLIKEN NwChem

@<TRIPOS>ATOM
      1 C          -2.7288    0.0630   -0.0023 C.2     1  LIG1       0.21999999999999975
      2 C          -0.7023   -0.5952   -0.0010 C.2     1  LIG1       0.15000000000000036
      3 C          -0.6452    0.7914   -0.0017 C.3     1  LIG1       0.6699999999999999
      4 C           0.5612   -1.2606    0.0003 C.2     1  LIG1       0.5300000000000002
      5 C           1.7557    0.7722    0.0025 C.cat   1  LIG1       0.6100000000000003
      6 N           2.8138    1.4946    0.0058 N.pl3   1  LIG1      -0.7599999999999998
      7 N          -2.0180   -1.0285   -0.0014 N.2     1  LIG1      -0.5499999999999998
      8 N          -1.9394    1.2201   -0.0027 N.pl3   1  LIG1      -0.6500000000000004
      9 N           0.5186    1.4803   -0.0014 N.pl3   1  LIG1      -0.7199999999999998
     10 N           1.6988   -0.6174    0.0021 N.2     1  LIG1      -0.6200000000000001
     11 O           0.5736   -2.6001   -0.0005 O.2     1  LIG1      -0.6199999999999992
     12 H          -3.8080    0.1258   -0.0027 H       1  LIG1       0.20999999999999996
     13 H           3.6284    0.8803    0.0082 H       1  LIG1       0.31000000000000005
     14 H          -2.2662    2.1754   -0.0018 H       1  LIG1           0.4
     15 H           0.5844    2.4892   -0.0030 H       1  LIG1          0.38
     16 H           1.5154   -2.8566    0.0004 H       1  LIG1       0.44999999999999996
@<TRIPOS>BOND
     1    15     9    1
     2    12     1    1
     3     8     1    1
     4     8    14    1
     5     8     3    1
     6     1     7    2
     7     3     9    1
     8     3     2    1
     9     9     5    1
    10     7     2    1
    11     2     4    2
    12    11     4    1
    13    11    16    1
    14     4    10    1
    15    10     5    2
    16     5     6    1
    17     6    13    1
