@<TRIPOS>MOLECULE
UYUXSRADSPPKRZ-SKNVOMKLSA-N	6045332	-684.6596877010825
 20 20 0 0 0
SMALL
MULLIKEN NwChem

@<TRIPOS>ATOM
      1 C           2.3018    0.7504    0.3851 C.2     1  LIG1       0.2599999999999998
      2 C           1.1729    1.1684   -0.5627 C.3     1  LIG1       0.03000000000000025
      3 C          -1.0329   -0.0547   -1.3118 C.3     1  LIG1       0.11000000000000032
      4 C          -1.5209   -0.6471    0.0239 C.3     1  LIG1       0.009999999999999787
      5 C           0.5190   -0.1187   -1.1579 C.3     1  LIG1       0.05999999999999961
      6 C          -0.3844   -1.6013    0.4011 C.2     1  LIG1       0.6299999999999999
      7 O           2.2380    0.9399    1.5764 O.2     1  LIG1      -0.4299999999999997
      8 O           0.2806    2.0562    0.0774 O.3     1  LIG1      -0.6699999999999999
      9 O          -1.5567    1.1737   -1.7090 O.3     1  LIG1      -0.6699999999999999
     10 O          -1.5989    0.3640    1.0341 O.3     1  LIG1      -0.6500000000000004
     11 O          -0.4084   -2.4771    1.2241 O.2     1  LIG1         -0.5
     12 O           0.7411   -1.2653   -0.2928 O.3     1  LIG1      -0.4800000000000004
     13 H           3.1684    0.2436   -0.0878 H       1  LIG1       0.17000000000000004
     14 H           1.6045    1.7325   -1.3981 H       1  LIG1       0.20999999999999996
     15 H          -1.3088   -0.7823   -2.0843 H       1  LIG1       0.19999999999999996
     16 H          -2.4738   -1.1779   -0.0671 H       1  LIG1       0.19999999999999996
     17 H           1.0094   -0.3612   -2.1034 H       1  LIG1       0.20999999999999996
     18 H          -0.0770    1.6079    0.8692 H       1  LIG1       0.43999999999999995
     19 H          -1.2206    1.8308   -1.0659 H       1  LIG1       0.43999999999999995
     20 H          -1.7896   -0.0822    1.8764 H       1  LIG1       0.44999999999999996
@<TRIPOS>BOND
     1    17     5    1
     2    15     3    1
     3     9     3    1
     4     9    19    1
     5    14     2    1
     6     3     5    1
     7     3     4    1
     8     5     2    1
     9     5    12    1
    10     2     8    1
    11     2     1    1
    12    12     6    1
    13    13     1    1
    14    16     4    1
    15     4     6    1
    16     4    10    1
    17     8    18    1
    18     1     7    2
    19     6    11    2
    20    10    20    1
