@<TRIPOS>MOLECULE
UYVZIWWBJMYRCD-ZMHDXICWSA-J	11164769	-4099.348852026509
 94 96 0 0 0
SMALL
MULLIKEN NwChem

@<TRIPOS>ATOM
      1 C          11.8470   -1.7896   -1.5814 C.3     1  LIG1      -0.4800000000000004
      2 C          14.3416   -2.0922   -1.2094 C.3     1  LIG1      -0.45999999999999996
      3 C           3.1450    0.4040    1.6617 C.3     1  LIG1      -0.4800000000000004
      4 C           3.1411    0.5335   -0.8653 C.3     1  LIG1      -0.4800000000000004
      5 C           8.1304    1.9329   -1.1722 C.3     1  LIG1       -0.3200000000000003
      6 C           7.3116    1.8442    0.1300 C.3     1  LIG1       -0.1299999999999999
      7 C          11.8117    2.4983   -1.1907 C.3     1  LIG1       -0.1299999999999999
      8 C          12.1994    2.5872    0.2970 C.3     1  LIG1       -0.4299999999999997
      9 C          12.9534   -0.5115    0.2767 C.3     1  LIG1       -0.3600000000000003
     10 C          -5.0170   -0.9180   -1.0887 C.3     1  LIG1       -0.07000000000000028
     11 C           1.3334    1.6679    0.4734 C.3     1  LIG1       -0.05999999999999961
     12 C          -9.8233    2.4497    2.3294 C.ar    1  LIG1       0.15000000000000036
     13 C          -9.6825   -0.7465   -0.6285 C.ar    1  LIG1       0.20999999999999996
     14 C          13.1561   -1.1202   -1.1384 C.3     1  LIG1      -0.07000000000000028
     15 C          -5.8455   -1.6445   -0.0683 C.3     1  LIG1       0.1299999999999999
     16 C           9.6379    1.7419   -0.9787 C.2     1  LIG1       0.4800000000000004
     17 C          14.1206    0.3647    0.6972 C.2     1  LIG1       0.29000000000000004
     18 C         -10.4428    1.0935    0.1300 C.ar    1  LIG1       0.1900000000000004
     19 C          -7.8608   -2.6871    0.5396 C.3     1  LIG1       0.03000000000000025
     20 C          -6.9434   -2.5040   -0.7129 C.3     1  LIG1       0.13999999999999968
     21 C           3.6120    2.6218    0.5153 C.3     1  LIG1       0.08000000000000007
     22 C         -11.1479    2.2560    0.4630 C.ar    1  LIG1       0.4400000000000004
     23 C          -9.4192    0.7084    1.0143 C.ar    1  LIG1          0.54
     24 C           5.1452    2.4351    0.8147 C.2     1  LIG1       0.4900000000000002
     25 C          -7.8275   -1.2736    1.1027 C.3     1  LIG1       0.2699999999999996
     26 C           2.8137    1.2746    0.4399 C.3     1  LIG1       0.07000000000000028
     27 N         -12.1624    2.7387   -0.3496 N.pl3   1  LIG1      -0.7800000000000002
     28 N          10.4028    2.7635   -1.3613 N.am    1  LIG1      -0.6200000000000001
     29 N           5.8817    1.9602   -0.1530 N.am    1  LIG1      -0.5800000000000001
     30 N         -10.8353    2.9361    1.5789 N.ar    1  LIG1        -0.54
     31 N          -9.0745    1.3652    2.1353 N.ar    1  LIG1        -0.54
     32 N         -10.5964    0.1724   -0.8870 N.ar    1  LIG1      -0.5800000000000001
     33 N          -8.9318   -0.4720    0.5125 N.ar    1  LIG1      -0.5300000000000002
     34 O          10.0318    0.6299   -0.4792 O.2     1  LIG1      -0.6699999999999999
     35 O          15.2080   -0.0980    1.0148 O.2     1  LIG1         -0.5
     36 O          -7.3159   -3.6107    1.4420 O.3     1  LIG1      -0.7400000000000002
     37 O           3.0957    3.4361    1.5594 O.3     1  LIG1      -0.7200000000000006
     38 O           5.4583    2.8084    2.0027 O.2     1  LIG1      -0.7300000000000004
     39 O          -8.9867   -3.7763   -2.0318 O.3     1  LIG1      -0.7699999999999996
     40 O          -7.3225   -5.6733   -2.7439 O.2     1  LIG1      -0.7200000000000006
     41 O          -8.0479   -5.4137   -0.2497 O.3     1  LIG1      -0.7899999999999991
     42 O          -1.9373   -0.3859   -2.1405 O.3     1  LIG1      -0.6899999999999995
     43 O          -3.4713    1.6794   -2.1945 O.2     1  LIG1      -0.5700000000000003
     44 O          -1.3456   -1.1080    0.6409 O.3     1  LIG1      -0.6899999999999995
     45 O          -1.1924    0.9555    2.3062 O.2     1  LIG1      -0.5700000000000003
     46 O          -3.8578   -0.2681   -0.4395 O.3     1  LIG1      -0.5700000000000003
     47 O           0.4758    0.4639    0.3209 O.3     1  LIG1      -0.5299999999999994
     48 O          -6.5666   -0.7026    0.7627 O.3     1  LIG1      -0.5500000000000007
     49 O          -6.4908   -3.6602   -1.3024 O.3     1  LIG1      -0.6899999999999995
     50 O          -1.9282    1.2514   -0.1485 O.3     1  LIG1      -0.6199999999999992
     51 P          -7.8707   -4.7726   -1.6590 P.3     1  LIG1       1.0199999999999996
     52 P          -2.8782    0.6468   -1.3288 P.3     1  LIG1       1.2599999999999998
     53 P          -0.9789    0.4516    0.9367 P.3     1  LIG1       1.2300000000000004
     54 S          13.9660    2.1612    0.7135 S.3     1  LIG1      0.02999999999999936
     55 H          11.0141   -1.0794   -1.5103 H       1  LIG1       0.16000000000000003
     56 H          11.9325   -2.1639   -2.6117 H       1  LIG1          0.14
     57 H          11.6211   -2.6490   -0.9332 H       1  LIG1          0.14
     58 H          14.1648   -2.9565   -0.5533 H       1  LIG1          0.14
     59 H          15.2752   -1.6211   -0.8888 H       1  LIG1       0.15000000000000002
     60 H          14.4677   -2.4728   -2.2330 H       1  LIG1          0.14
     61 H           3.0407    0.9941    2.5782 H       1  LIG1          0.14
     62 H           2.4792   -0.4657    1.7172 H       1  LIG1       0.15000000000000002
     63 H           4.1804    0.0556    1.5993 H       1  LIG1       0.15000000000000002
     64 H           4.2261    0.4192   -0.9450 H       1  LIG1       0.16000000000000003
     65 H           2.6427   -0.4432   -0.8971 H       1  LIG1          0.14
     66 H           2.8029    1.1131   -1.7358 H       1  LIG1          0.14
     67 H           7.7673    1.1439   -1.8485 H       1  LIG1          0.12
     68 H           7.9406    2.8967   -1.6584 H       1  LIG1       0.10999999999999999
     69 H           7.5528    0.8820    0.6123 H       1  LIG1       0.09999999999999998
     70 H           7.6546    2.6245    0.8307 H       1  LIG1       0.09999999999999998
     71 H          12.1116    1.5001   -1.5572 H       1  LIG1          0.13
     72 H          12.4107    3.2392   -1.7477 H       1  LIG1       0.10999999999999999
     73 H          12.0870    3.6145    0.6609 H       1  LIG1       0.18000000000000005
     74 H          11.5389    1.9457    0.8813 H       1  LIG1       0.19999999999999996
     75 H          11.9919    0.0138    0.2717 H       1  LIG1       0.20999999999999996
     76 H          12.9067   -1.3319    1.0074 H       1  LIG1       0.17000000000000004
     77 H          -4.6485   -1.6469   -1.8181 H       1  LIG1       0.18999999999999995
     78 H          -5.6032   -0.1414   -1.5856 H       1  LIG1       0.19999999999999996
     79 H           1.0805    2.3274   -0.3638 H       1  LIG1       0.18000000000000005
     80 H           1.0851    2.1560    1.4160 H       1  LIG1       0.18000000000000005
     81 H          -9.5969    3.0275    3.2255 H       1  LIG1       0.17000000000000004
     82 H          -9.5286   -1.6608   -1.2095 H       1  LIG1       0.21999999999999997
     83 H          13.3524   -0.2834   -1.8238 H       1  LIG1          0.14
     84 H          -5.2158   -2.2894    0.5586 H       1  LIG1       0.15000000000000002
     85 H          -8.8613   -2.9979    0.2307 H       1  LIG1       0.17000000000000004
     86 H          -7.4737   -1.8619   -1.4406 H       1  LIG1          0.12
     87 H           3.4921    3.1356   -0.4523 H       1  LIG1       0.10999999999999999
     88 H          -7.9578   -1.2218    2.1862 H       1  LIG1       0.18000000000000005
     89 H         -12.8467    3.2973    0.1445 H       1  LIG1          0.36
     90 H         -12.5527    2.0334   -0.9636 H       1  LIG1          0.37
     91 H          -7.4894   -4.4751    0.8943 H       1  LIG1       0.43000000000000005
     92 H           3.9088    3.4323    2.1527 H       1  LIG1           0.4
     93 H          -1.5242   -1.0241   -1.5268 H       1  LIG1          0.48
     94 H          -2.2924   -1.2627    0.8322 H       1  LIG1           0.49
@<TRIPOS>BOND
     1    40    51    2
     2    56     1    1
     3    60     2    1
     4    43    52    2
     5    42    93    1
     6    42    52    1
     7    39    51    1
     8    67     5    1
     9    83    14    1
    10    77    10    1
    11    72     7    1
    12    66     4    1
    13    51    49    1
    14    51    41    1
    15    68     5    1
    16    78    10    1
    17     1    55    1
    18     1    14    1
    19     1    57    1
    20    71     7    1
    21    86    20    1
    22    28     7    1
    23    28    16   am
    24    52    46    1
    25    52    50    1
    26    49    20    1
    27    82    13    1
    28     2    14    1
    29     2    59    1
    30     2    58    1
    31     7     8    1
    32     5    16    1
    33     5     6    1
    34    14     9    1
    35    10    46    1
    36    10    15    1
    37    16    34    2
    38    90    27    1
    39    64     4    1
    40    65     4    1
    41    32    13   ar
    42    32    18   ar
    43     4    26    1
    44    20    15    1
    45    20    19    1
    46    13    33   ar
    47    87    21    1
    48    79    11    1
    49    27    89    1
    50    27    22    1
    51    29     6    1
    52    29    24   am
    53    50    53    1
    54    15    84    1
    55    15    48    1
    56     6    69    1
    57     6    70    1
    58    18    22   ar
    59    18    23   ar
    60    85    19    1
    61    75     9    1
    62     9    17    1
    63     9    76    1
    64     8    73    1
    65     8    54    1
    66     8    74    1
    67    47    11    1
    68    47    53    1
    69    26    11    1
    70    26    21    1
    71    26     3    1
    72    22    30   ar
    73    11    80    1
    74    33    23   ar
    75    33    25    1
    76    21    24    1
    77    21    37    1
    78    19    25    1
    79    19    36    1
    80    44    94    1
    81    44    53    1
    82    17    54    1
    83    17    35    2
    84    48    25    1
    85    24    38    2
    86    91    36    1
    87    53    45    2
    88    23    31   ar
    89    25    88    1
    90    37    92    1
    91    30    12   ar
    92    63     3    1
    93     3    62    1
    94     3    61    1
    95    31    12   ar
    96    12    81    1
