@<TRIPOS>MOLECULE
UYXTWWCETRIEDR-UHFFFAOYSA-N	6045334	-1038.3178021485614
 47 46 0 0 0
SMALL
MULLIKEN NwChem

@<TRIPOS>ATOM
      1 C           0.9711    3.0478   -4.8599 C.3     1  LIG1      -0.45999999999999996
      2 C           3.8131   -3.1418    0.3188 C.3     1  LIG1      -0.45999999999999996
      3 C          -0.7351   -0.4129    4.9331 C.3     1  LIG1      -0.45999999999999996
      4 C           0.2997    1.6815   -5.0282 C.3     1  LIG1        -0.25
      5 C           3.1461   -2.0120   -0.4684 C.3     1  LIG1        -0.25
      6 C          -0.5626    1.0503    4.4994 C.3     1  LIG1        -0.25
      7 C           0.4641    0.7789   -3.7997 C.3     1  LIG1       -0.3600000000000003
      8 C           1.6198   -1.9531   -0.3274 C.3     1  LIG1       -0.40000000000000036
      9 C          -0.6790    1.1959    2.9736 C.3     1  LIG1       -0.41000000000000014
     10 C          -0.3653    1.2727   -0.2014 C.3     1  LIG1       -0.09999999999999964
     11 C          -1.1581   -1.1490    0.2534 C.3     1  LIG1       -0.08999999999999986
     12 C          -1.5380    0.3307    0.1060 C.3     1  LIG1       0.08999999999999986
     13 C          -0.3070    1.2894   -2.5970 C.2     1  LIG1       0.6500000000000004
     14 C           1.1634   -1.4792    1.0419 C.2     1  LIG1       0.6500000000000004
     15 C          -2.1167    1.0143    2.4910 C.2     1  LIG1       0.6200000000000001
     16 O          -1.3267    1.9428   -2.6329 O.2     1  LIG1      -0.5199999999999996
     17 O           1.9081   -1.2287    1.9609 O.2     1  LIG1      -0.5099999999999998
     18 O          -3.0752    1.1097    3.2114 O.2     1  LIG1      -0.4900000000000002
     19 O           0.2772    0.8782   -1.4330 O.3     1  LIG1      -0.47000000000000064
     20 O          -0.1812   -1.3670    1.2769 O.3     1  LIG1      -0.4900000000000002
     21 O          -2.3919    0.7949    1.1569 O.3     1  LIG1      -0.4900000000000002
     22 H           0.5068    3.6168   -4.0455 H       1  LIG1       0.15000000000000002
     23 H           0.8771    3.6436   -5.7742 H       1  LIG1       0.15000000000000002
     24 H           2.0412    2.9430   -4.6362 H       1  LIG1       0.15000000000000002
     25 H           3.4268   -4.1225    0.0148 H       1  LIG1       0.15000000000000002
     26 H           4.8895   -3.1445    0.1315 H       1  LIG1       0.15000000000000002
     27 H           3.6490   -3.0191    1.3939 H       1  LIG1       0.15000000000000002
     28 H           0.0566   -1.0299    4.4932 H       1  LIG1          0.14
     29 H          -0.6865   -0.5130    6.0226 H       1  LIG1       0.15000000000000002
     30 H          -1.7063   -0.8025    4.6066 H       1  LIG1       0.15000000000000002
     31 H          -0.7705    1.8141   -5.2223 H       1  LIG1       0.15000000000000002
     32 H           0.7210    1.1648   -5.8969 H       1  LIG1       0.15000000000000002
     33 H           3.3771   -2.1233   -1.5352 H       1  LIG1       0.15000000000000002
     34 H           3.5630   -1.0493   -0.1581 H       1  LIG1       0.15000000000000002
     35 H           0.4357    1.4013    4.8020 H       1  LIG1       0.15000000000000002
     36 H          -1.3035    1.6887    4.9919 H       1  LIG1       0.15000000000000002
     37 H           0.0650   -0.2224   -4.0107 H       1  LIG1       0.19999999999999996
     38 H           1.5168    0.6513   -3.5238 H       1  LIG1       0.18000000000000005
     39 H           1.1585   -2.9345   -0.5105 H       1  LIG1       0.19999999999999996
     40 H           1.2109   -1.2744   -1.0827 H       1  LIG1       0.20999999999999996
     41 H          -0.0290    0.4631    2.5012 H       1  LIG1       0.19999999999999996
     42 H          -0.3522    2.1906    2.6388 H       1  LIG1       0.19999999999999996
     43 H           0.4257    1.2339    0.5431 H       1  LIG1       0.19999999999999996
     44 H          -0.7432    2.2907   -0.2906 H       1  LIG1       0.19999999999999996
     45 H          -2.0494   -1.7065    0.5540 H       1  LIG1       0.19999999999999996
     46 H          -0.8315   -1.5346   -0.7162 H       1  LIG1       0.20999999999999996
     47 H          -2.1973    0.3778   -0.7676 H       1  LIG1       0.19999999999999996
@<TRIPOS>BOND
     1    32     4    1
     2    23     1    1
     3    31     4    1
     4     4     1    1
     5     4     7    1
     6     1    24    1
     7     1    22    1
     8    37     7    1
     9     7    38    1
    10     7    13    1
    11    16    13    2
    12    13    19    1
    13    33     5    1
    14    19    10    1
    15    40     8    1
    16    47    12    1
    17    46    11    1
    18    39     8    1
    19     5     8    1
    20     5    34    1
    21     5     2    1
    22     8    14    1
    23    44    10    1
    24    10    12    1
    25    10    43    1
    26    25     2    1
    27    12    11    1
    28    12    21    1
    29    26     2    1
    30    11    45    1
    31    11    20    1
    32     2    27    1
    33    14    20    1
    34    14    17    2
    35    21    15    1
    36    15     9    1
    37    15    18    2
    38    41     9    1
    39    42     9    1
    40     9     6    1
    41    28     3    1
    42     6    35    1
    43     6     3    1
    44     6    36    1
    45    30     3    1
    46     3    29    1
