@<TRIPOS>MOLECULE
UZLPMHGCXVJFGY-UHFFFAOYSA-N	6045335	-839.4691160443856
 39 40 0 0 0
SMALL
MULLIKEN NwChem

@<TRIPOS>ATOM
      1 C           2.8469   -1.2231   -0.8304 C.3     1  LIG1      -0.46999999999999975
      2 C          -5.8864   -0.7060    0.4969 C.3     1  LIG1       -0.5300000000000002
      3 C           0.9074    1.4202   -1.9084 C.2     1  LIG1      -0.23000000000000043
      4 C           1.9837    1.9170   -1.0774 C.2     1  LIG1      -0.17999999999999972
      5 C           3.4602    1.7061    0.9576 C.3     1  LIG1      -0.3600000000000003
      6 C           0.2046    0.3494   -1.4586 C.2     1  LIG1      0.04999999999999982
      7 C           4.8207    0.9909    0.8879 C.3     1  LIG1       -0.03000000000000025
      8 C          -2.5740   -2.0150   -0.4279 C.3     1  LIG1       -0.040000000000000036
      9 C          -0.1980   -1.4659    0.1585 C.3     1  LIG1       -0.21999999999999975
     10 C           2.0079   -0.2706    0.0509 C.3     1  LIG1       -0.019999999999999574
     11 C          -4.4054   -0.9213    0.3589 C.2     1  LIG1          0.54
     12 C           2.4688    1.1810   -0.0496 C.2     1  LIG1      0.08000000000000007
     13 C          -1.6785   -1.2024    0.2003 C.2     1  LIG1       0.08999999999999986
     14 C          -2.1832   -0.0805    0.9960 C.2     1  LIG1       0.45999999999999996
     15 N          -1.5718    0.8372    1.6509 N.pl3   1  LIG1      -0.7599999999999998
     16 N          -3.9461   -1.9004   -0.3738 N.2     1  LIG1      -0.5300000000000002
     17 N          -3.5943   -0.0535    1.0216 N.pl3   1  LIG1      -0.6299999999999999
     18 N           0.5824   -0.3223   -0.3140 N.pl3   1  LIG1      -0.41999999999999993
     19 O           5.3965    1.0628   -0.4077 O.3     1  LIG1      -0.6799999999999997
     20 H           2.7264   -0.9451   -1.8826 H       1  LIG1       0.15000000000000002
     21 H           2.5254   -2.2640   -0.7075 H       1  LIG1       0.16000000000000003
     22 H           3.9098   -1.1620   -0.5799 H       1  LIG1       0.16000000000000003
     23 H          -6.4124   -1.4868   -0.0530 H       1  LIG1       0.18999999999999995
     24 H          -6.1913   -0.7382    1.5498 H       1  LIG1       0.19999999999999996
     25 H          -6.1770    0.2725    0.0955 H       1  LIG1       0.19999999999999996
     26 H           0.5771    1.9625   -2.7861 H       1  LIG1          0.14
     27 H           2.3339    2.9369   -1.2261 H       1  LIG1          0.14
     28 H           3.6173    2.7780    0.7883 H       1  LIG1       0.15000000000000002
     29 H           3.0605    1.5918    1.9771 H       1  LIG1       0.16000000000000003
     30 H          -0.7153    0.0117   -1.9256 H       1  LIG1       0.17000000000000004
     31 H           5.5300    1.4627    1.5769 H       1  LIG1       0.15000000000000002
     32 H           4.7037   -0.0577    1.2113 H       1  LIG1          0.14
     33 H          -2.2141   -2.8499   -1.0277 H       1  LIG1       0.17000000000000004
     34 H          -0.0044   -2.3699   -0.4407 H       1  LIG1       0.18000000000000005
     35 H           0.1555   -1.6803    1.1767 H       1  LIG1       0.18000000000000005
     36 H           2.0797   -0.6012    1.0959 H       1  LIG1       0.16000000000000003
     37 H          -0.5649    0.7618    1.5045 H       1  LIG1       0.31000000000000005
     38 H          -3.9877    0.7038    1.5706 H       1  LIG1          0.38
     39 H           4.6607    1.0158   -1.0424 H       1  LIG1       0.41000000000000003
@<TRIPOS>BOND
     1    26     3    1
     2    30     6    1
     3     3     6    2
     4     3     4    1
     5    20     1    1
     6     6    18    1
     7    27     4    1
     8     4    12    2
     9    39    19    1
    10    33     8    1
    11     1    21    1
    12     1    22    1
    13     1    10    1
    14    34     9    1
    15     8    16    1
    16     8    13    1
    17    19     7    1
    18    16    11    2
    19    18    10    1
    20    18     9    1
    21    23     2    1
    22    12    10    1
    23    12     5    1
    24    10    36    1
    25    25     2    1
    26     9    13    1
    27     9    35    1
    28    13    14    2
    29    11     2    1
    30    11    17    1
    31     2    24    1
    32    28     5    1
    33     7     5    1
    34     7    32    1
    35     7    31    1
    36     5    29    1
    37    14    17    1
    38    14    15    1
    39    17    38    1
    40    37    15    1
