@<TRIPOS>MOLECULE
UZTFMUBKZQVKLK-UHFFFAOYSA-M	6045336	-515.0930629044195
 20 19 0 0 0
SMALL
MULLIKEN NwChem

@<TRIPOS>ATOM
      1 C          -1.0536   -1.1041   -2.5066 C.3     1  LIG1       -0.5499999999999998
      2 C          -0.2939   -0.3008    1.6829 C.3     1  LIG1      -0.2599999999999998
      3 C           1.0159    0.5121    1.7564 C.3     1  LIG1       -0.34999999999999964
      4 C          -0.7192   -0.5710    0.2213 C.3     1  LIG1       -0.1200000000000001
      5 C           0.3036   -1.3745   -1.7858 C.2     1  LIG1       0.45999999999999996
      6 C           0.8892    2.0042    1.7379 C.2     1  LIG1       0.5800000000000001
      7 N           0.4059   -1.1228   -0.4819 N.am    1  LIG1      -0.5899999999999999
      8 O           1.2270   -1.8281   -2.5039 O.2     1  LIG1      -0.7100000000000009
      9 O           1.5676    2.7923    2.3760 O.2     1  LIG1      -0.5399999999999991
     10 O          -0.0784    2.4602    0.8906 O.3     1  LIG1      -0.5800000000000001
     11 H          -1.8823   -1.6653   -2.0494 H       1  LIG1       0.15000000000000002
     12 H          -0.9599   -1.3979   -3.5562 H       1  LIG1          0.13
     13 H          -1.3352   -0.0415   -2.4574 H       1  LIG1       0.15000000000000002
     14 H          -1.1018    0.1825    2.2517 H       1  LIG1          0.13
     15 H          -0.0915   -1.2703    2.1556 H       1  LIG1          0.13
     16 H           1.6186    0.2704    2.6368 H       1  LIG1       0.16000000000000003
     17 H           1.5688    0.1830    0.8547 H       1  LIG1       0.18000000000000005
     18 H          -1.1064    0.3813   -0.1966 H       1  LIG1       0.09999999999999998
     19 H          -1.6078   -1.2416    0.2731 H       1  LIG1       0.09999999999999998
     20 H          -0.0227    3.4316    0.9525 H       1  LIG1       0.43999999999999995
@<TRIPOS>BOND
     1    12     1    1
     2     1    13    1
     3     1    11    1
     4     1     5    1
     5     8     5    2
     6     5     7   am
     7     7     4    1
     8    18     4    1
     9     4    19    1
    10     4     2    1
    11    17     3    1
    12    10    20    1
    13    10     6    1
    14     2     3    1
    15     2    15    1
    16     2    14    1
    17     6     3    1
    18     6     9    2
    19     3    16    1
