@<TRIPOS>MOLECULE
VACHUYIREGFMSP-IRXDYDNUSA-M	6045338	-1007.6201804545832
 57 56 0 0 0
SMALL
MULLIKEN NwChem

@<TRIPOS>ATOM
      1 C           3.4308    3.4975   -4.8959 C.3     1  LIG1      -0.45999999999999996
      2 C           2.4975    3.9140   -3.7533 C.3     1  LIG1      -0.2599999999999998
      3 C           1.0034    3.7637   -4.0849 C.3     1  LIG1      -0.2599999999999998
      4 C           0.5498    2.3342   -4.4335 C.3     1  LIG1      -0.2699999999999996
      5 C           0.8622    1.2705   -3.3658 C.3     1  LIG1      -0.2699999999999996
      6 C          -0.2778   -0.9781    2.7344 C.3     1  LIG1      -0.28000000000000025
      7 C           0.2838    1.5587   -1.9694 C.3     1  LIG1      -0.28000000000000025
      8 C           0.4052   -1.2179    1.3778 C.3     1  LIG1      -0.28000000000000025
      9 C          -0.3530   -2.2133    3.6485 C.3     1  LIG1      -0.2699999999999996
     10 C          -1.2450    1.7387   -1.9229 C.3     1  LIG1      -0.28000000000000025
     11 C          -0.2225   -2.3317    0.5171 C.3     1  LIG1      -0.28000000000000025
     12 C           1.0093   -2.8488    3.9882 C.3     1  LIG1      -0.2599999999999998
     13 C          -2.0621    0.5690   -2.4985 C.3     1  LIG1      -0.28000000000000025
     14 C          -1.7360   -2.2002    0.2743 C.3     1  LIG1      -0.2999999999999998
     15 C           2.0388   -1.8439    4.5335 C.3     1  LIG1       -0.33000000000000007
     16 C          -1.7851   -0.8100   -1.8775 C.3     1  LIG1       0.1200000000000001
     17 C          -2.1746   -0.8938   -0.3922 C.3     1  LIG1       0.1200000000000001
     18 C           1.4140   -1.0271    5.7204 C.2     1  LIG1       0.5199999999999996
     19 O          -2.4808   -1.8227   -2.6092 O.3     1  LIG1      -0.6999999999999993
     20 O          -3.6150   -0.7775   -0.3942 O.3     1  LIG1      -0.6899999999999995
     21 O           1.1910   -1.7019    6.7568 O.co2   1  LIG1      -0.6799999999999997
     22 O           1.1506    0.1815    5.4761 O.co2   1  LIG1      -0.6799999999999997
     23 H           3.3317    2.4310   -5.1273 H       1  LIG1       0.15000000000000002
     24 H           4.4805    3.6825   -4.6392 H       1  LIG1          0.14
     25 H           3.2051    4.0579   -5.8128 H       1  LIG1          0.14
     26 H           2.7371    3.3281   -2.8563 H       1  LIG1          0.14
     27 H           2.6946    4.9624   -3.4895 H       1  LIG1          0.13
     28 H           0.4150    4.1333   -3.2347 H       1  LIG1          0.14
     29 H           0.7607    4.4233   -4.9314 H       1  LIG1          0.13
     30 H          -0.5315    2.3516   -4.6233 H       1  LIG1          0.14
     31 H           1.0117    2.0253   -5.3810 H       1  LIG1          0.13
     32 H           0.4880    0.3021   -3.7236 H       1  LIG1          0.14
     33 H           1.9505    1.1521   -3.2753 H       1  LIG1          0.14
     34 H           0.2548   -0.1957    3.2884 H       1  LIG1          0.14
     35 H          -1.2979   -0.5956    2.5667 H       1  LIG1          0.13
     36 H           0.5787    0.7450   -1.2950 H       1  LIG1       0.15000000000000002
     37 H           0.7524    2.4621   -1.5576 H       1  LIG1          0.14
     38 H           1.4586   -1.4731    1.5466 H       1  LIG1          0.14
     39 H           0.4174   -0.2739    0.8123 H       1  LIG1          0.14
     40 H          -0.8198   -1.9028    4.5905 H       1  LIG1          0.12
     41 H          -1.0105   -2.9816    3.2081 H       1  LIG1          0.13
     42 H          -1.5423    1.9194   -0.8821 H       1  LIG1          0.14
     43 H          -1.5199    2.6508   -2.4703 H       1  LIG1          0.14
     44 H          -0.0472   -3.2980    1.0058 H       1  LIG1          0.14
     45 H           0.2989   -2.3866   -0.4493 H       1  LIG1          0.14
     46 H           0.8407   -3.6070    4.7631 H       1  LIG1          0.12
     47 H           1.4081   -3.3747    3.1038 H       1  LIG1          0.13
     48 H          -3.1314    0.7827   -2.3780 H       1  LIG1          0.13
     49 H          -1.8798    0.4737   -3.5760 H       1  LIG1          0.14
     50 H          -2.2509   -2.2768    1.2424 H       1  LIG1       0.15000000000000002
     51 H          -2.0924   -3.0303   -0.3474 H       1  LIG1          0.13
     52 H           2.9156   -2.4024    4.8913 H       1  LIG1       0.10999999999999999
     53 H           2.3731   -1.1600    3.7422 H       1  LIG1       0.10999999999999999
     54 H          -0.7215   -1.0513   -1.9743 H       1  LIG1       0.15000000000000002
     55 H          -1.7460   -0.0415    0.1498 H       1  LIG1       0.15000000000000002
     56 H          -3.3877   -1.7895   -2.2555 H       1  LIG1       0.41000000000000003
     57 H          -3.9238   -1.0299    0.4888 H       1  LIG1       0.43000000000000005
@<TRIPOS>BOND
     1    25     1    1
     2    31     4    1
     3    23     1    1
     4    29     3    1
     5     1    24    1
     6     1     2    1
     7    30     4    1
     8     4     3    1
     9     4     5    1
    10     3     2    1
    11     3    28    1
    12     2    27    1
    13     2    26    1
    14    32     5    1
    15    49    13    1
    16     5    33    1
    17     5     7    1
    18    19    56    1
    19    19    16    1
    20    13    48    1
    21    13    10    1
    22    13    16    1
    23    43    10    1
    24    54    16    1
    25     7    10    1
    26     7    37    1
    27     7    36    1
    28    10    42    1
    29    16    17    1
    30    45    11    1
    31    20    17    1
    32    20    57    1
    33    17    55    1
    34    17    14    1
    35    51    14    1
    36    14    11    1
    37    14    50    1
    38    11    44    1
    39    11     8    1
    40    39     8    1
    41     8    38    1
    42     8     6    1
    43    35     6    1
    44     6    34    1
    45     6     9    1
    46    47    12    1
    47    41     9    1
    48     9    12    1
    49     9    40    1
    50    53    15    1
    51    12    15    1
    52    12    46    1
    53    15    52    1
    54    15    18    1
    55    22    18   ar
    56    18    21   ar
