@<TRIPOS>MOLECULE
VASLEPDZAKCNJX-KLVWXMOXSA-N	6045339	-610.6415367760721
 21 21 0 0 0
SMALL
MULLIKEN NwChem

@<TRIPOS>ATOM
      1 C          -0.2219   -1.1384   -2.8703 C.3     1  LIG1      -0.4800000000000004
      2 C          -0.9048   -0.1396   -1.9426 C.3     1  LIG1       0.13999999999999968
      3 C           0.6730   -0.8258    0.0787 C.3     1  LIG1       0.08999999999999986
      4 C           0.4614   -0.5121    1.5714 C.3     1  LIG1       -0.009999999999999787
      5 C          -0.7328   -0.5363   -0.4679 C.3     1  LIG1       0.08999999999999986
      6 C          -0.5238    0.6649    1.5110 C.2     1  LIG1       0.6399999999999997
      7 O          -0.3808    1.1409   -2.2266 O.3     1  LIG1      -0.6699999999999999
      8 O           1.6271    0.0664   -0.4494 O.3     1  LIG1      -0.6699999999999999
      9 O           1.6423   -0.1233    2.2431 O.3     1  LIG1      -0.6500000000000004
     10 O          -0.6991    1.5312    2.3200 O.2     1  LIG1      -0.5099999999999998
     11 O          -1.2297    0.5656    0.3481 O.3     1  LIG1         -0.5
     12 H           0.8575   -1.1274   -2.6950 H       1  LIG1       0.17000000000000004
     13 H          -0.4043   -0.8503   -3.9094 H       1  LIG1       0.16000000000000003
     14 H          -0.6086   -2.1531   -2.7188 H       1  LIG1       0.17000000000000004
     15 H          -1.9935   -0.1516   -2.1304 H       1  LIG1          0.14
     16 H           0.9547   -1.8736   -0.1071 H       1  LIG1       0.17000000000000004
     17 H          -0.0507   -1.3445    2.0771 H       1  LIG1       0.21999999999999997
     18 H          -1.3668   -1.4119   -0.2683 H       1  LIG1       0.18999999999999995
     19 H          -0.6065    1.7176   -1.4785 H       1  LIG1       0.42000000000000004
     20 H           2.2427    0.2617    0.2812 H       1  LIG1       0.43000000000000005
     21 H           2.0561   -0.9134    2.6216 H       1  LIG1       0.45999999999999996
@<TRIPOS>BOND
     1    13     1    1
     2     1    14    1
     3     1    12    1
     4     1     2    1
     5     7     2    1
     6     7    19    1
     7    15     2    1
     8     2     5    1
     9     5    18    1
    10     5     3    1
    11     5    11    1
    12     8     3    1
    13     8    20    1
    14    16     3    1
    15     3     4    1
    16    11     6    1
    17     6     4    1
    18     6    10    2
    19     4    17    1
    20     4     9    1
    21     9    21    1
