@<TRIPOS>MOLECULE
VBKPPDYGFUZOAJ-UHFFFAOYSA-M	6045340	-420.4779301215685
 15 14 0 0 0
SMALL
MULLIKEN NwChem

@<TRIPOS>ATOM
      1 C           0.1303    0.2915    0.9309 C.3     1  LIG1      -0.2699999999999996
      2 C          -0.3609    1.7434    0.7964 C.3     1  LIG1       -0.33999999999999986
      3 C          -0.4125   -0.6615   -0.1337 C.3     1  LIG1       -0.3700000000000001
      4 C           0.1156    2.4029   -0.4755 C.2     1  LIG1       0.2599999999999998
      5 C           0.2666   -2.0899   -0.0898 C.2     1  LIG1       0.5199999999999996
      6 O          -0.5162    3.1992   -1.1420 O.2     1  LIG1      -0.46000000000000085
      7 O          -0.4293   -3.0190   -0.5608 O.co2   1  LIG1      -0.6899999999999995
      8 O           1.4315   -2.1102    0.3871 O.co2   1  LIG1      -0.6699999999999999
      9 H          -0.1317   -0.0816    1.9296 H       1  LIG1          0.14
     10 H           1.2250    0.2462    0.8814 H       1  LIG1          0.14
     11 H          -1.4539    1.8286    0.8369 H       1  LIG1       0.16000000000000003
     12 H           0.0416    2.3578    1.6231 H       1  LIG1       0.18999999999999995
     13 H          -1.5016   -0.7763   -0.0503 H       1  LIG1          0.12
     14 H          -0.2269   -0.2385   -1.1365 H       1  LIG1          0.14
     15 H           1.1546    2.1214   -0.7723 H       1  LIG1           0.13
@<TRIPOS>BOND
     1     6     4    2
     2    14     3    1
     3    15     4    1
     4     7     5   ar
     5     4     2    1
     6     3     5    1
     7     3    13    1
     8     3     1    1
     9     5     8   ar
    10     2    11    1
    11     2     1    1
    12     2    12    1
    13    10     1    1
    14     1     9    1
