@<TRIPOS>MOLECULE
VCKPUUFAIGNJHC-LURJTMIESA-N	6045341	-798.5363577589656
 28 28 0 0 0
SMALL
MULLIKEN NwChem

@<TRIPOS>ATOM
      1 C          -3.6466    0.3243   -0.6114 C.ar    1  LIG1      -0.16999999999999993
      2 C          -2.5027   -0.3355   -0.1977 C.ar    1  LIG1      -0.1900000000000004
      3 C          -3.5421    1.6245   -1.1213 C.ar    1  LIG1      -0.16999999999999993
      4 C           1.2870    0.0203    0.4704 C.3     1  LIG1       -0.41000000000000014
      5 C          -1.2204    0.2486   -0.3003 C.ar    1  LIG1       0.03000000000000025
      6 CA          2.1489   -0.8718    1.3635 C.3     1  LIG1       -0.03000000000000025
      7 C          -2.2982    2.2193   -1.2352 C.ar    1  LIG1       0.29000000000000004
      8 C          -0.0982   -0.5762    0.2427 C.2     1  LIG1       0.4400000000000004
      9 C          -1.1081    1.5407   -0.8728 C.ar    1  LIG1       0.20999999999999996
     10 C           2.4764   -2.1747    0.6389 C.2     1  LIG1       0.5999999999999996
     11 N           3.3860   -0.1572    1.7195 N.3     1  LIG1      -0.7599999999999998
     12 N           0.0761    2.2545   -1.0898 N.pl3   1  LIG1      -0.8300000000000001
     13 O          -2.2067    3.4935   -1.7727 O.3     1  LIG1      -0.6899999999999995
     14 O          -0.2857   -1.7447    0.5675 O.2     1  LIG1      -0.5299999999999994
     15 O           2.7583   -2.2488   -0.5397 O.2     1  LIG1      -0.5299999999999994
     16 OXT         2.5555   -3.2258    1.4847 O.3     1  LIG1      -0.5899999999999999
     17 H          -4.6189   -0.1496   -0.5204 H       1  LIG1       0.16000000000000003
     18 H          -2.5575   -1.3315    0.2271 H       1  LIG1       0.15000000000000002
     19 H          -4.4139    2.1928   -1.4300 H       1  LIG1       0.16000000000000003
     20 H           1.7964    0.1060   -0.5022 H       1  LIG1       0.20999999999999996
     21 H           1.2241    1.0207    0.9112 H       1  LIG1       0.19999999999999996
     22 HA          1.6104   -1.1058    2.2845 H       1  LIG1       0.17000000000000004
     23 H1          3.9252   -0.7180    2.3782 H       1  LIG1       0.33999999999999997
     24 H2          3.9658   -0.0581    0.8854 H       1  LIG1       0.32999999999999996
     25 H           0.0072    2.8542   -1.9067 H       1  LIG1          0.36
     26 H           0.9232    1.7072   -1.1216 H       1  LIG1          0.37
     27 H          -1.6597    4.0336   -1.1760 H       1  LIG1       0.44999999999999996
     28 HXT         2.8226   -3.9945    0.9457 H       1  LIG1       0.43999999999999995
@<TRIPOS>BOND
     1    25    12    1
     2    13     7    1
     3    13    27    1
     4    19     3    1
     5     7     3   ar
     6     7     9   ar
     7    26    12    1
     8     3     1   ar
     9    12     9    1
    10     9     5   ar
    11     1    17    1
    12     1     2   ar
    13    15    10    2
    14    20     4    1
    15     5     2   ar
    16     5     8    1
    17     2    18    1
    18     8     4    1
    19     8    14    2
    20     4    21    1
    21     4     6    1
    22    10     6    1
    23    10    16    1
    24    24    11    1
    25    28    16    1
    26     6    11    1
    27     6    22    1
    28    11    23    1
