@<TRIPOS>MOLECULE
VDXLUNDMVKSKHO-XVFCMESISA-L	11083962	-1440.68745447866
 33 32 0 0 0
SMALL
MULLIKEN NwChem

@<TRIPOS>ATOM
      1 C          -4.5271    1.2657   -1.0439 C.3     1  LIG1       -0.1900000000000004
      2 C           2.3967   -1.6176    0.4511 C.3     1  LIG1       -0.08000000000000007
      3 C          -4.9176    2.5727    0.8356 C.2     1  LIG1       0.23000000000000043
      4 C           1.2747   -0.5897    0.6975 C.3     1  LIG1       0.13999999999999968
      5 C          -3.4150    0.3170   -1.5024 C.2     1  LIG1           0.5
      6 C          -0.0320   -1.2940    1.0841 C.3     1  LIG1       0.05999999999999961
      7 C          -1.2129   -0.3526    1.4184 C.3     1  LIG1       0.08999999999999986
      8 C          -1.8271    0.3662    0.2375 C.2     1  LIG1       0.1299999999999999
      9 N          -4.0516    2.2781   -0.1265 N.am    1  LIG1      -0.5499999999999998
     10 N          -2.6767   -0.2663   -0.4666 N.am    1  LIG1      -0.4299999999999997
     11 O          -6.0854    2.1556    1.0602 O.2     1  LIG1      -0.6500000000000004
     12 O          -3.2643   -0.0243   -2.6695 O.2     1  LIG1      -0.5399999999999991
     13 O           0.2492   -2.0515    2.2882 O.3     1  LIG1      -0.6699999999999999
     14 O          -0.8318    0.5861    2.4155 O.3     1  LIG1      -0.6799999999999997
     15 O           3.4969    0.8271   -1.2343 O.3     1  LIG1      -0.6999999999999993
     16 O           5.7562    0.1733   -0.1870 O.3     1  LIG1      -0.7100000000000009
     17 O           4.6743   -1.4722   -1.8306 O.2     1  LIG1      -0.6999999999999993
     18 O           3.6963   -1.0354    0.5345 O.3     1  LIG1      -0.5700000000000003
     19 O           0.9894    0.1960   -0.4309 O.3     1  LIG1      -0.7100000000000009
     20 P           4.3356   -0.3733   -0.8607 P.3     1  LIG1       1.0500000000000007
     21 H          -5.3350    0.6440   -0.6099 H       1  LIG1          0.14
     22 H          -4.9326    1.6848   -1.9817 H       1  LIG1          0.13
     23 H           2.2375   -2.0919   -0.5284 H       1  LIG1       0.15000000000000002
     24 H           2.3555   -2.3915    1.2248 H       1  LIG1       0.16000000000000003
     25 H          -4.4921    3.3376    1.5376 H       1  LIG1       0.040000000000000036
     26 H           1.5953    0.0253    1.5574 H       1  LIG1          0.12
     27 H          -0.3409   -1.9610    0.2668 H       1  LIG1       0.15000000000000002
     28 H          -2.0115   -1.0162    1.8061 H       1  LIG1       0.16000000000000003
     29 H          -1.5057    1.3900    0.0544 H       1  LIG1       0.17000000000000004
     30 H          -0.5663   -2.5338    2.4979 H       1  LIG1       0.43999999999999995
     31 H          -0.2309    0.0944    3.0011 H       1  LIG1       0.43000000000000005
     32 H           1.8557    0.5515   -0.7738 H       1  LIG1       0.43999999999999995
     33 H           6.3944   -0.5258   -0.3966 H       1  LIG1       0.44999999999999996
@<TRIPOS>BOND
     1    12     5    2
     2    22     1    1
     3    17    20    2
     4     5     1    1
     5     5    10    1
     6    15    20    1
     7     1    21    1
     8     1     9    1
     9    20    16    1
    10    20    18    1
    11    32    19    1
    12    23     2    1
    13    10     8    2
    14    19     4    1
    15    33    16    1
    16     9     3   am
    17    29     8    1
    18     8     7    1
    19    27     6    1
    20     2    18    1
    21     2     4    1
    22     2    24    1
    23     4     6    1
    24     4    26    1
    25     3    11    2
    26     3    25    1
    27     6     7    1
    28     6    13    1
    29     7    28    1
    30     7    14    1
    31    13    30    1
    32    14    31    1
