@<TRIPOS>MOLECULE
VDYDCVUWILIYQF-CSMHCCOUSA-M	6045344	-1671.5040528737634
 45 44 0 0 0
SMALL
MULLIKEN NwChem

@<TRIPOS>ATOM
      1 C          -1.4571   -2.8821    4.5643 C.3     1  UNK1      -0.46999999999999975
      2 C          -0.3735    1.5565   -3.6585 C.3     1  UNK1      -0.2599999999999998
      3 C          -0.7109    1.2271   -2.1925 C.3     1  UNK1       -0.3799999999999999
      4 CA          2.3583    0.7232    1.2080 C.3     2  GLY2       -0.23000000000000043
      5 C          -1.6419   -0.0387    0.4039 C.3     1  UNK1       -0.46999999999999975
      6 C          -2.5908   -2.6412    3.5626 C.3     1  UNK1       0.07000000000000028
      7 C           1.0648    1.2898   -4.1795 C.3     1  UNK1       -0.009999999999999787
      8 C          -0.7768    1.1178    1.0132 C.3     1  UNK1       0.009999999999999787
      9 C           0.2418    1.8812   -1.1494 C.2     1  UNK1       0.5199999999999996
     10 C           2.5235   -0.2081    0.0340 C.2     2  GLY2       0.6100000000000003
     11 C           0.1381    0.5531    2.1277 C.2     1  UNK1       0.5199999999999996
     12 C           1.8318    0.2903   -3.3315 C.2     1  UNK1       0.6200000000000001
     13 C          -2.0068   -2.1004    2.2407 C.2     1  UNK1       0.2599999999999998
     14 N           0.9908    0.8164   -5.5856 N.3     1  UNK1      -0.7699999999999996
     15 N           1.3921    0.3690    2.2278 N.2     2  GLY2      -0.5300000000000002
     16 N           0.0302    1.9189    0.1558 N.am    1  UNK1      -0.6100000000000003
     17 O          -3.6167   -1.8230    4.0992 O.3     1  UNK1      -0.6500000000000004
     18 O           1.2698    2.4140   -1.6586 O.2     1  UNK1      -0.6799999999999997
     19 O           3.5689   -0.2701   -0.6123 O.2     2  GLY2      -0.5600000000000005
     20 OXT         1.4233   -0.8797   -0.2958 O.3     2  GLY2      -0.5800000000000001
     21 O          -0.5792    0.2535    3.2736 O.2     1  UNK1      -0.6300000000000008
     22 O           1.3461   -0.7831   -2.9639 O.2     1  UNK1      -0.5700000000000003
     23 O           3.1047    0.6169   -3.1224 O.3     1  UNK1      -0.6099999999999994
     24 O          -1.0059   -2.5772    1.7532 O.2     1  UNK1      -0.4800000000000004
     25 S          -2.9331   -0.7341    1.5200 S.3     1  UNK1      0.08000000000000007
     26 H          -1.0011   -1.9243    4.8365 H       1  UNK1       0.17000000000000004
     27 H          -0.6834   -3.5162    4.1233 H       1  UNK1       0.17000000000000004
     28 H          -1.8553   -3.3519    5.4693 H       1  UNK1       0.17000000000000004
     29 H          -1.0670    0.9907   -4.2971 H       1  UNK1          0.13
     30 H          -0.5790    2.6155   -3.8471 H       1  UNK1          0.14
     31 H          -0.6969    0.1420   -2.0654 H       1  UNK1       0.16000000000000003
     32 H          -1.7445    1.5552   -2.0151 H       1  UNK1       0.15000000000000002
     33 HA1         2.0789    1.6723    0.7161 H       2  GLY2       0.20999999999999996
     34 HA2         3.3457    0.8198    1.6721 H       2  GLY2       0.17000000000000004
     35 H          -1.0163   -0.8630    0.0593 H       1  UNK1       0.20999999999999996
     36 H          -2.2144    0.3541   -0.4331 H       1  UNK1       0.20999999999999996
     37 H          -3.0742   -3.5970    3.3197 H       1  UNK1       0.19999999999999996
     38 H           1.6333    2.2176   -4.1631 H       1  UNK1       0.16000000000000003
     39 H          -1.4900    1.7592    1.5635 H       1  UNK1       0.15000000000000002
     40 H           1.9408    0.7090   -5.9455 H       1  UNK1       0.32999999999999996
     41 H           0.5929   -0.1249   -5.5751 H       1  UNK1       0.31999999999999995
     42 H          -3.2676   -0.9142    4.1157 H       1  UNK1       0.43000000000000005
     43 HXT         1.5120   -1.1681   -1.2406 H       2  GLY2       0.44999999999999996
     44 H           0.1219   -0.0546    3.8806 H       1  UNK1       0.42000000000000004
     45 H           3.4376    0.0798   -2.3557 H       1  UNK1       0.44999999999999996
@<TRIPOS>BOND
     1    40    14    1
     2    14    41    1
     3    14     7    1
     4    29     2    1
     5     7    38    1
     6     7     2    1
     7     7    12    1
     8    30     2    1
     9     2     3    1
    10    12    23    1
    11    12    22    2
    12    23    45    1
    13     3    31    1
    14     3    32    1
    15     3     9    1
    16    18     9    2
    17    43    20    1
    18     9    16   am
    19    19    10    2
    20    36     5    1
    21    20    10    1
    22    10     4    1
    23    35     5    1
    24    16     8    1
    25     5     8    1
    26     5    25    1
    27    33     4    1
    28     8    39    1
    29     8    11    1
    30     4    34    1
    31     4    15    1
    32    25    13    1
    33    24    13    2
    34    11    15    2
    35    11    21    1
    36    13     6    1
    37    21    44    1
    38    37     6    1
    39     6    17    1
    40     6     1    1
    41    17    42    1
    42    27     1    1
    43     1    26    1
    44     1    28    1
