@<TRIPOS>MOLECULE
VEPICJBQCOUQPI-IRVXXIIISA-M	11083961	-1742.144226703194
 94 94 0 0 0
SMALL
MULLIKEN NwChem

@<TRIPOS>ATOM
      1 C         -11.8558    1.0521    3.2762 C.3     1  LIG1      -0.5300000000000002
      2 C         -11.3956    2.9226    1.6316 C.3     1  LIG1      -0.5199999999999996
      3 C          -9.6689   -2.1768    2.4182 C.3     1  LIG1        -0.54
      4 C          -6.5379   -2.6094   -1.5047 C.3     1  LIG1        -0.54
      5 C          -3.2456    2.5185   -2.6932 C.3     1  LIG1        -0.54
      6 C           1.3473    0.6851   -2.2186 C.3     1  LIG1        -0.54
      7 C           5.3599   -1.7132   -0.6665 C.3     1  LIG1      -0.5599999999999996
      8 C         -12.0720   -0.8543    0.7803 C.3     1  LIG1      -0.3099999999999996
      9 C          -7.2186   -0.6236    1.2685 C.3     1  LIG1      -0.2999999999999998
     10 C          -4.7693   -0.2840   -2.6887 C.3     1  LIG1      -0.3200000000000003
     11 C          -1.1899    2.1606   -0.3812 C.3     1  LIG1      -0.2999999999999998
     12 C           2.9389    0.0003    0.3692 C.3     1  LIG1      -0.3099999999999996
     13 C         -11.8192    0.6280    0.7835 C.2     1  LIG1      -0.16999999999999993
     14 C         -10.8633   -1.6522    0.2201 C.3     1  LIG1      -0.33000000000000007
     15 C          -8.5400   -0.8619    0.5871 C.2     1  LIG1      -0.1900000000000004
     16 C          -6.0821   -1.5654    0.7859 C.3     1  LIG1      -0.33000000000000007
     17 C          -5.1041   -0.5387   -1.2445 C.2     1  LIG1      -0.16999999999999993
     18 C          -3.2551   -0.0297   -2.9113 C.3     1  LIG1      -0.33000000000000007
     19 C          -1.8361    1.0664   -1.1903 C.2     1  LIG1      -0.1900000000000004
     20 C           0.2288    2.5586   -0.8736 C.3     1  LIG1      -0.33000000000000007
     21 C           1.9131    1.0895    0.2060 C.2     1  LIG1      -0.20000000000000018
     22 C           4.3849    0.5149    0.1445 C.3     1  LIG1      -0.33000000000000007
     23 C           6.3548   -0.4696    1.2862 C.2     1  LIG1      -0.1900000000000004
     24 C           7.4718   -1.4377    1.6001 C.3     1  LIG1      -0.3899999999999997
     25 C           9.5994   -0.0944    2.0484 C.ar    1  LIG1      -0.2999999999999998
     26 C          11.3367    0.1310    0.3270 C.ar    1  LIG1       -0.3200000000000003
     27 C         -11.7081    1.4583    1.8302 C.2     1  LIG1      0.16999999999999993
     28 C          -9.6065   -1.5274    1.0558 C.2     1  LIG1      0.1900000000000004
     29 C          -5.8512   -1.5199   -0.7172 C.2     1  LIG1      0.16000000000000014
     30 C          -2.7179    1.1934   -2.1948 C.2     1  LIG1      0.1900000000000004
     31 C           1.2190    1.4062   -0.8980 C.2     1  LIG1      0.16999999999999993
     32 C           5.4338   -0.5620    0.3161 C.2     1  LIG1      0.1900000000000004
     33 C           8.8319   -0.8984    1.1876 C.ar    1  LIG1       0.11000000000000032
     34 C          10.8363    0.4144    1.6203 C.ar    1  LIG1       0.08999999999999986
     35 C          10.6078   -0.6743   -0.5711 C.ar    1  LIG1       0.3700000000000001
     36 C           9.3332   -1.1646   -0.0791 C.ar    1  LIG1       0.20000000000000018
     37 C          11.6515    1.2527    2.5030 C.2     1  LIG1       0.5199999999999996
     38 O          10.9155   -1.0340   -1.7696 O.3     1  LIG1      -0.7799999999999994
     39 O           8.6946   -1.9316   -1.0023 O.3     1  LIG1      -0.6899999999999995
     40 O          12.7393    1.7555    2.2492 O.2     1  LIG1      -0.5600000000000005
     41 O          11.0949    1.4755    3.7491 O.3     1  LIG1      -0.6199999999999992
     42 H         -12.1413    0.0057    3.4068 H       1  LIG1       0.17000000000000004
     43 H         -12.6128    1.6714    3.7776 H       1  LIG1       0.16000000000000003
     44 H         -10.9131    1.2131    3.8179 H       1  LIG1       0.16000000000000003
     45 H         -10.4557    3.1922    2.1340 H       1  LIG1       0.16000000000000003
     46 H         -12.1764    3.5592    2.0718 H       1  LIG1       0.16000000000000003
     47 H         -11.2994    3.1843    0.5729 H       1  LIG1       0.16000000000000003
     48 H          -8.7043   -2.1851    2.9309 H       1  LIG1       0.16000000000000003
     49 H         -10.3872   -1.6659    3.0728 H       1  LIG1       0.17000000000000004
     50 H         -10.0095   -3.2177    2.3315 H       1  LIG1       0.16000000000000003
     51 H          -6.4218   -2.5030   -2.5863 H       1  LIG1       0.16000000000000003
     52 H          -7.6115   -2.6273   -1.2765 H       1  LIG1       0.16000000000000003
     53 H          -6.1436   -3.5946   -1.2177 H       1  LIG1       0.16000000000000003
     54 H          -2.7583    3.3749   -2.2215 H       1  LIG1       0.16000000000000003
     55 H          -3.0961    2.6062   -3.7784 H       1  LIG1       0.16000000000000003
     56 H          -4.3263    2.6131   -2.5192 H       1  LIG1       0.17000000000000004
     57 H           1.9885   -0.1981   -2.1639 H       1  LIG1       0.16000000000000003
     58 H           0.3644    0.3789   -2.5984 H       1  LIG1       0.16000000000000003
     59 H           1.7771    1.3580   -2.9744 H       1  LIG1       0.16000000000000003
     60 H           4.6872   -2.5107   -0.3168 H       1  LIG1       0.16000000000000003
     61 H           4.9597   -1.3659   -1.6292 H       1  LIG1       0.15000000000000002
     62 H           6.3460   -2.1428   -0.8572 H       1  LIG1       0.18000000000000005
     63 H         -12.9427   -1.0740    0.1448 H       1  LIG1          0.14
     64 H         -12.3242   -1.2230    1.7795 H       1  LIG1       0.15000000000000002
     65 H          -6.9042    0.4092    1.0666 H       1  LIG1          0.14
     66 H          -7.3096   -0.7141    2.3570 H       1  LIG1          0.14
     67 H          -5.3316    0.5912   -3.0491 H       1  LIG1       0.15000000000000002
     68 H          -5.0782   -1.1215   -3.3231 H       1  LIG1       0.15000000000000002
     69 H          -1.8174    3.0600   -0.3613 H       1  LIG1       0.15000000000000002
     70 H          -1.0982    1.8196    0.6584 H       1  LIG1          0.14
     71 H           2.8760   -0.4166    1.3834 H       1  LIG1          0.14
     72 H           2.7440   -0.8314   -0.3171 H       1  LIG1       0.15000000000000002
     73 H         -11.6677    1.0544   -0.2104 H       1  LIG1          0.12
     74 H         -11.1568   -2.7104    0.1479 H       1  LIG1          0.14
     75 H         -10.6622   -1.3105   -0.8035 H       1  LIG1          0.14
     76 H          -8.6072   -0.4514   -0.4208 H       1  LIG1          0.12
     77 H          -6.3267   -2.5907    1.0938 H       1  LIG1          0.14
     78 H          -5.1624   -1.2845    1.3147 H       1  LIG1          0.14
     79 H          -4.6566    0.1765   -0.5520 H       1  LIG1          0.12
     80 H          -3.0851    0.0809   -3.9932 H       1  LIG1          0.14
     81 H          -2.7009   -0.9202   -2.5912 H       1  LIG1          0.14
     82 H          -1.5071    0.0585   -0.9365 H       1  LIG1          0.12
     83 H           0.5993    3.3552   -0.2156 H       1  LIG1          0.14
     84 H           0.1363    2.9929   -1.8785 H       1  LIG1          0.14
     85 H           1.7699    1.7236    1.0844 H       1  LIG1          0.12
     86 H           4.5762    1.3499    0.8305 H       1  LIG1          0.14
     87 H           4.4342    0.9293   -0.8744 H       1  LIG1          0.14
     88 H           6.3451    0.4230    1.9148 H       1  LIG1          0.12
     89 H           7.4740   -1.6219    2.6849 H       1  LIG1       0.15000000000000002
     90 H           7.2956   -2.4018    1.1132 H       1  LIG1       0.15000000000000002
     91 H           9.2347    0.1269    3.0465 H       1  LIG1          0.13
     92 H          12.2975    0.5364    0.0269 H       1  LIG1       0.09999999999999998
     93 H           9.3936   -1.8667   -1.7361 H       1  LIG1       0.41000000000000003
     94 H          11.7573    2.0366    4.1891 H       1  LIG1       0.43000000000000005
@<TRIPOS>BOND
     1    80    18    1
     2    55     5    1
     3    68    10    1
     4    67    10    1
     5    59     6    1
     6    18    10    1
     7    18    81    1
     8    18    30    1
     9     5    56    1
    10     5    54    1
    11     5    30    1
    12    10    17    1
    13    58     6    1
    14    51     4    1
    15     6    57    1
    16     6    31    1
    17    30    19    2
    18    84    20    1
    19    38    35    1
    20    93    39    1
    21    61     7    1
    22     4    52    1
    23     4    53    1
    24     4    29    1
    25    17    29    2
    26    17    79    1
    27    19    82    1
    28    19    11    1
    29    39    36    1
    30    31    20    1
    31    31    21    2
    32    87    22    1
    33    20    11    1
    34    20    83    1
    35    62     7    1
    36    75    14    1
    37    29    16    1
    38     7    60    1
    39     7    32    1
    40    35    36   ar
    41    35    26   ar
    42    76    15    1
    43    11    69    1
    44    11    70    1
    45    72    12    1
    46    73    13    1
    47    36    33   ar
    48    92    26    1
    49    22    32    1
    50    22    12    1
    51    22    86    1
    52    63     8    1
    53    74    14    1
    54    21    12    1
    55    21    85    1
    56    14     8    1
    57    14    28    1
    58    32    23    2
    59    26    34   ar
    60    12    71    1
    61    47     2    1
    62    15    28    2
    63    15     9    1
    64     8    13    1
    65     8    64    1
    66    13    27    2
    67    16    77    1
    68    16     9    1
    69    16    78    1
    70    28     3    1
    71    65     9    1
    72    90    24    1
    73    33    24    1
    74    33    25   ar
    75     9    66    1
    76    23    24    1
    77    23    88    1
    78    24    89    1
    79    34    25   ar
    80    34    37    1
    81     2    27    1
    82     2    46    1
    83     2    45    1
    84    27     1    1
    85    25    91    1
    86    40    37    2
    87    50     3    1
    88     3    48    1
    89     3    49    1
    90    37    41    1
    91     1    42    1
    92     1    43    1
    93     1    44    1
    94    41    94    1
