@<TRIPOS>MOLECULE
VGGSQFUCUMXWEO-UHFFFAOYSA-N	6045347	-78.55881416147723
 6 5 0 0 0
SMALL
MULLIKEN NwChem

@<TRIPOS>ATOM
      1 C           0.3328    0.0142    0.5763 C.2     1  LIG1      -0.3200000000000003
      2 C          -0.3328   -0.0142   -0.5763 C.2     1  LIG1      -0.3200000000000003
      3 H          -0.1801    0.0378    1.5351 H       1  LIG1       0.16000000000000003
      4 H           1.4199    0.0151    0.6117 H       1  LIG1       0.16000000000000003
      5 H          -1.4199   -0.0151   -0.6117 H       1  LIG1       0.16000000000000003
      6 H           0.1801   -0.0378   -1.5351 H       1  LIG1       0.16000000000000003
@<TRIPOS>BOND
     1     6     2    1
     2     5     2    1
     3     2     1    2
     4     1     4    1
     5     1     3    1
