@<TRIPOS>MOLECULE
VGONTNSXDCQUGY-RRKCRQDMSA-N	6045348	-908.0072124613256
 30 32 0 0 0
SMALL
MULLIKEN NwChem

@<TRIPOS>ATOM
      1 C2*         0.8423   -1.7535    1.2219 C.3     1    I1       -0.33000000000000007
      2 C5*         3.3049   -1.6777   -0.9181 C.3     1    I1       -0.07000000000000028
      3 C2         -2.5631    2.4586    1.1722 C.ar    1    I1       0.16999999999999993
      4 C8         -0.3229   -0.2581   -1.4016 C.ar    1    I1       0.21999999999999975
      5 C3*         2.3300   -2.0358    1.4652 C.3     1    I1       0.08999999999999986
      6 C4*         3.0085   -1.0821    0.4599 C.3     1    I1       0.09999999999999964
      7 C1*         0.8311   -0.2544    0.8762 C.3     1    I1       0.2599999999999998
      8 C5         -1.9148    1.1097   -1.0567 C.ar    1    I1       0.1900000000000004
      9 C4         -1.2142    1.0269    0.1602 C.ar    1    I1          0.54
     10 C6         -3.0197    1.9737   -1.0336 C.ar    1    I1       0.5099999999999998
     11 N3         -1.4938    1.6712    1.2988 N.ar    1    I1      -0.5300000000000002
     12 N1         -3.3300    2.6396    0.0812 N.ar    1    I1      -0.5300000000000002
     13 N7         -1.3355    0.2989   -2.0185 N.ar    1    I1      -0.5700000000000003
     14 N9         -0.1934    0.1310   -0.0744 N.ar    1    I1      -0.5099999999999998
     15 O5*         2.1930   -2.3394   -1.5212 O.3     1    I1      -0.6500000000000004
     16 O3*         2.7305   -1.7788    2.8049 O.3     1    I1      -0.6699999999999999
     17 O6         -3.7864    2.1517   -2.1185 O.3     1    I1      -0.6199999999999992
     18 O4*         2.1219    0.0446    0.3466 O.3     1    I1      -0.5299999999999994
     19 H2*1        0.4775   -2.3252    0.3654 H       1    I1       0.18000000000000005
     20 H2*2        0.2320   -1.9884    2.0965 H       1    I1       0.18000000000000005
     21 H5*1        3.5703   -0.8586   -1.5925 H       1    I1       0.17000000000000004
     22 H5*2        4.1720   -2.3508   -0.8414 H       1    I1       0.16000000000000003
     23 H2         -2.8570    3.0228    2.0539 H       1    I1       0.18000000000000005
     24 H8          0.3809   -0.9549   -1.8377 H       1    I1       0.21999999999999997
     25 H3*         2.5931   -3.0836    1.2881 H       1    I1       0.17000000000000004
     26 H4*         3.9557   -0.7205    0.8807 H       1    I1       0.16000000000000003
     27 H1*         0.6456    0.3684    1.7584 H       1    I1       0.18000000000000005
     28 H5*         2.1327   -3.2355   -1.1586 H       1    I1       0.43999999999999995
     29 H3*         2.6007   -0.8328    2.9826 H       1    I1       0.43000000000000005
     30 H6         -4.4765    2.7893   -1.8562 H       1    I1       0.44999999999999996
@<TRIPOS>BOND
     1    17    30    1
     2    17    10    1
     3    13     4   ar
     4    13     8   ar
     5    24     4    1
     6    21     2    1
     7    15    28    1
     8    15     2    1
     9     4    14   ar
    10     8    10   ar
    11     8     9   ar
    12    10    12   ar
    13     2    22    1
    14     2     6    1
    15    14     9   ar
    16    14     7    1
    17    12     3   ar
    18     9    11   ar
    19    18     6    1
    20    18     7    1
    21    19     1    1
    22     6    26    1
    23     6     5    1
    24     7     1    1
    25     7    27    1
    26     3    11   ar
    27     3    23    1
    28     1     5    1
    29     1    20    1
    30    25     5    1
    31     5    16    1
    32    16    29    1
