@<TRIPOS>MOLECULE
VHRGRCVQAFMJIZ-UHFFFAOYSA-P	6045349	-309.2171853673393
 23 22 0 0 0
SMALL
MULLIKEN NwChem

@<TRIPOS>ATOM
      1 C           0.0458   -0.6673    0.2252 C.3     1  LIG1      -0.28000000000000025
      2 C          -0.5832    0.2469    1.3024 C.3     1  LIG1      -0.29000000000000004
      3 C           0.0272   -0.0833   -1.2006 C.3     1  LIG1      -0.29000000000000004
      4 C           0.2707    1.4765    1.6245 C.3     1  LIG1      -0.17999999999999972
      5 C           0.6999   -0.9562   -2.2633 C.3     1  LIG1      -0.17999999999999972
      6 N          -0.3349    2.2639    2.7859 N.4     1  LIG1       -0.7199999999999998
      7 N          -0.0892   -2.2333   -2.5671 N.4     1  LIG1       -0.7199999999999998
      8 H          -0.5179   -1.6088    0.2586 H       1  LIG1       0.17000000000000004
      9 H           1.0762   -0.9157    0.5122 H       1  LIG1       0.16000000000000003
     10 H          -1.5857    0.5609    0.9827 H       1  LIG1       0.18000000000000005
     11 H          -0.7088   -0.3487    2.2153 H       1  LIG1       0.18000000000000005
     12 H          -1.0007    0.1541   -1.5082 H       1  LIG1       0.18000000000000005
     13 H           0.5753    0.8662   -1.2326 H       1  LIG1       0.18999999999999995
     14 H           1.2804    1.2040    1.9428 H       1  LIG1       0.21999999999999997
     15 H           0.3410    2.1828    0.7940 H       1  LIG1       0.22999999999999998
     16 H           0.7810   -0.4312   -3.2175 H       1  LIG1       0.21999999999999997
     17 H           1.6962   -1.2875   -1.9591 H       1  LIG1       0.21999999999999997
     18 H          -0.3991    1.6920    3.6393 H       1  LIG1      0.44999999999999996
     19 H           0.2287    3.0935    3.0187 H       1  LIG1      0.44999999999999996
     20 H          -1.2860    2.5930    2.5709 H       1  LIG1      0.44999999999999996
     21 H          -1.0381   -2.0220   -2.9045 H       1  LIG1      0.44999999999999996
     22 H           0.3741   -2.7897   -3.2992 H       1  LIG1      0.45999999999999996
     23 H          -0.1831   -2.8400   -1.7430 H       1  LIG1      0.43999999999999995
@<TRIPOS>BOND
     1    22     7    1
     2    16     5    1
     3    21     7    1
     4     7     5    1
     5     7    23    1
     6     5    17    1
     7     5     3    1
     8    12     3    1
     9    13     3    1
    10     3     1    1
    11     1     8    1
    12     1     9    1
    13     1     2    1
    14    15     4    1
    15    10     2    1
    16     2     4    1
    17     2    11    1
    18     4    14    1
    19     4     6    1
    20    20     6    1
    21     6    19    1
    22     6    18    1
