@<TRIPOS>MOLECULE
VISAJVAPYPFKCL-QMMMGPOBSA-N	6045350	-649.7010865037265
 23 23 0 0 0
SMALL
MULLIKEN NwChem

@<TRIPOS>ATOM
      1 C          -1.4990   -0.3381    2.8812 C.3     1  LIG1       -0.2400000000000002
      2 C           0.1722    0.6282   -1.7743 C.ar    1  LIG1      -0.20000000000000018
      3 C          -0.9726    1.3999   -1.5673 C.ar    1  LIG1      -0.20999999999999996
      4 C          -0.0244   -0.2444    0.4668 C.ar    1  LIG1      -0.2699999999999996
      5 C           2.2194   -2.1665   -0.1141 C.2     1  LIG1          0.25
      6 C           0.6538   -0.2035   -0.7632 C.ar    1  LIG1      0.11000000000000032
      7 C          -1.6518    1.3555   -0.3520 C.ar    1  LIG1       0.29000000000000004
      8 C           1.9574   -0.9408   -0.9950 C.3     1  LIG1       -0.019999999999999574
      9 C          -1.1729    0.5174    0.6804 C.ar    1  LIG1       0.33999999999999986
     10 O           1.3774   -2.9116    0.3337 O.2     1  LIG1      -0.4299999999999997
     11 O          -2.7778    2.0812   -0.0921 O.3     1  LIG1      -0.6699999999999999
     12 O           3.0968   -0.0733   -0.9241 O.3     1  LIG1      -0.6600000000000001
     13 O          -1.9016    0.5276    1.8307 O.3     1  LIG1      -0.5299999999999994
     14 H          -2.2299   -0.1958    3.6792 H       1  LIG1       0.18000000000000005
     15 H          -0.4986   -0.0816    3.2571 H       1  LIG1       0.17000000000000004
     16 H          -1.5040   -1.3895    2.5634 H       1  LIG1       0.17000000000000004
     17 H           0.6954    0.6850   -2.7246 H       1  LIG1       0.16000000000000003
     18 H          -1.3483    2.0439   -2.3606 H       1  LIG1       0.17000000000000004
     19 H           0.3275   -0.9050    1.2468 H       1  LIG1       0.17000000000000004
     20 H           3.3066   -2.3323    0.0591 H       1  LIG1          0.14
     21 H           1.9708   -1.3282   -2.0253 H       1  LIG1       0.19999999999999996
     22 H          -2.9996    2.5990   -0.8814 H       1  LIG1       0.44999999999999996
     23 H           2.9472    0.5234   -0.1731 H       1  LIG1       0.43000000000000005
@<TRIPOS>BOND
     1    17     2    1
     2    18     3    1
     3    21     8    1
     4     2     3   ar
     5     2     6   ar
     6     3     7   ar
     7     8    12    1
     8     8     6    1
     9     8     5    1
    10    12    23    1
    11    22    11    1
    12     6     4   ar
    13     7    11    1
    14     7     9   ar
    15     5    20    1
    16     5    10    2
    17     4     9   ar
    18     4    19    1
    19     9    13    1
    20    13     1    1
    21    16     1    1
    22     1    15    1
    23     1    14    1
