@<TRIPOS>MOLECULE
VISQBWUSDZWVMM-FPVIQYCMSA-J	11164749	-4253.1241305361955
 101 103 0 0 0
SMALL
MULLIKEN NwChem

@<TRIPOS>ATOM
      1 C          11.7465   -4.7066    2.1226 C.3     1  LIG1      -0.45999999999999996
      2 C           2.7781    0.5352    1.3591 C.3     1  LIG1      -0.4900000000000002
      3 C           2.3932    2.5733   -0.0834 C.3     1  LIG1      -0.46999999999999975
      4 C          12.5277   -4.2414    0.8893 C.3     1  LIG1        -0.25
      5 C          12.7092   -2.7195    0.8355 C.3     1  LIG1      -0.2599999999999998
      6 C          13.4893   -2.2528   -0.3980 C.3     1  LIG1      -0.2699999999999996
      7 C           6.9058    4.5600    1.0587 C.3     1  LIG1       -0.33999999999999986
      8 C           6.1840    3.6459    2.0687 C.3     1  LIG1       -0.1200000000000001
      9 C           8.9170    2.8173    0.0286 C.3     1  LIG1       -0.1200000000000001
     10 C          10.0688    1.8078    0.0317 C.3     1  LIG1       -0.4299999999999997
     11 C          12.5129    0.1014   -0.5971 C.3     1  LIG1       -0.3799999999999999
     12 C          -5.1647    0.1103   -2.3163 C.3     1  LIG1       -0.09999999999999964
     13 C           0.5533    1.6967    1.4005 C.3     1  LIG1       -0.04999999999999982
     14 C          -7.4640   -3.3599    2.7739 C.ar    1  LIG1       0.15000000000000036
     15 C          -9.2347   -0.5657   -0.0562 C.ar    1  LIG1       0.21999999999999975
     16 C          13.7853   -0.7515   -0.4481 C.3     1  LIG1       0.13999999999999968
     17 C          -6.2235   -0.9086   -2.6546 C.3     1  LIG1       0.15000000000000036
     18 C           8.4178    4.7561    1.3625 C.2     1  LIG1       0.45999999999999996
     19 C          12.8115    1.6066   -0.6577 C.2     1  LIG1       0.28000000000000025
     20 C          -8.9403   -1.3216    1.9115 C.ar    1  LIG1       0.1900000000000004
     21 C          -8.4707   -1.6557   -2.7331 C.3     1  LIG1       0.09999999999999964
     22 C          -7.6129   -0.3254   -2.8870 C.3     1  LIG1       0.1200000000000001
     23 C           2.5023    2.8165    2.4477 C.3     1  LIG1       0.07000000000000028
     24 C          -8.8767   -1.6170    3.2795 C.ar    1  LIG1       0.4400000000000004
     25 C          -8.1841   -2.1479    1.0640 C.ar    1  LIG1       0.5499999999999998
     26 C           4.0575    2.8997    2.6630 C.2     1  LIG1       0.5099999999999998
     27 C          -7.7943   -2.1984   -1.4421 C.3     1  LIG1          0.25
     28 C           2.0699    1.8949    1.2567 C.3     1  LIG1       0.08000000000000007
     29 N          -9.5938   -0.8850    4.2132 N.pl3   1  LIG1      -0.7800000000000002
     30 N           9.3262    3.8938    0.8767 N.am    1  LIG1      -0.5899999999999999
     31 N           4.7505    3.5816    1.7893 N.am    1  LIG1      -0.5999999999999996
     32 N          -8.1285   -2.6469    3.7071 N.ar    1  LIG1        -0.54
     33 N          -7.4322   -3.1899    1.4522 N.ar    1  LIG1        -0.54
     34 N          -9.5908   -0.3350    1.1938 N.ar    1  LIG1      -0.5899999999999999
     35 N          -8.3821   -1.6525   -0.2024 N.ar    1  LIG1      -0.5199999999999996
     36 O          14.6765   -0.5429   -1.5373 O.3     1  LIG1      -0.7100000000000009
     37 O           8.7256    5.7294    2.0912 O.2     1  LIG1      -0.7100000000000009
     38 O          13.9344    1.9877   -1.0265 O.2     1  LIG1      -0.5299999999999994
     39 O          -8.3271   -2.4856   -3.7771 O.3     1  LIG1      -0.8100000000000005
     40 O           1.9545    2.3318    3.6669 O.3     1  LIG1      -0.7200000000000006
     41 O           4.4445    2.2775    3.7161 O.2     1  LIG1      -0.7300000000000004
     42 O         -10.0681    0.9552   -3.3374 O.3     1  LIG1      -0.7300000000000004
     43 O          -9.6910   -0.7596   -5.2708 O.3     1  LIG1      -0.7799999999999994
     44 O          -9.1883    1.7294   -5.6962 O.2     1  LIG1      -0.6899999999999995
     45 O          -4.3881   -1.3378    0.0974 O.3     1  LIG1      -0.6899999999999995
     46 O          -2.4358   -2.4224   -1.3160 O.2     1  LIG1      -0.6400000000000006
     47 O          -0.0731   -1.3847   -0.6312 O.3     1  LIG1      -0.6899999999999995
     48 O          -0.9435   -0.9479    1.8246 O.2     1  LIG1      -0.5899999999999999
     49 O          -3.8205   -0.4689   -2.2482 O.3     1  LIG1      -0.5299999999999994
     50 O           0.0066    0.9335    0.2618 O.3     1  LIG1      -0.5299999999999994
     51 O          -6.4114   -1.8110   -1.5174 O.3     1  LIG1      -0.5800000000000001
     52 O          -7.6941    0.3171   -4.1262 O.3     1  LIG1      -0.6500000000000004
     53 O          -2.2410   -0.0832   -0.2805 O.3     1  LIG1      -0.6099999999999994
     54 P          -9.2985    0.6869   -4.6201 P.3     1  LIG1       1.0600000000000005
     55 P          -3.2130   -1.1945   -0.9603 P.3     1  LIG1       1.2400000000000002
     56 P          -0.7737   -0.4315    0.4489 P.3     1  LIG1       1.2100000000000009
     57 S          11.6245    2.8138   -0.1554 S.3     1  LIG1      0.08000000000000007
     58 H          11.6231   -5.7966    2.1374 H       1  LIG1       0.15000000000000002
     59 H          10.7472   -4.2563    2.1461 H       1  LIG1       0.15000000000000002
     60 H          12.2597   -4.4134    3.0473 H       1  LIG1       0.15000000000000002
     61 H           2.3886   -0.1681    0.6130 H       1  LIG1       0.15000000000000002
     62 H           3.8530    0.6613    1.1953 H       1  LIG1       0.15000000000000002
     63 H           2.6330    0.1123    2.3587 H       1  LIG1          0.14
     64 H           1.8107    3.4983   -0.2001 H       1  LIG1          0.14
     65 H           2.1468    1.9123   -0.9228 H       1  LIG1          0.14
     66 H           3.4521    2.8467   -0.0999 H       1  LIG1       0.15000000000000002
     67 H          13.5157   -4.7261    0.8706 H       1  LIG1          0.13
     68 H          12.0084   -4.5742   -0.0209 H       1  LIG1          0.14
     69 H          13.2285   -2.3845    1.7462 H       1  LIG1          0.14
     70 H          11.7194   -2.2453    0.8601 H       1  LIG1          0.14
     71 H          14.4574   -2.7723   -0.4411 H       1  LIG1          0.14
     72 H          12.9491   -2.5304   -1.3144 H       1  LIG1          0.14
     73 H           6.7274    4.1698    0.0453 H       1  LIG1          0.12
     74 H           6.4400    5.5511    1.1063 H       1  LIG1       0.10999999999999999
     75 H           6.3836    4.0289    3.0847 H       1  LIG1       0.09999999999999998
     76 H           6.6453    2.6400    2.0557 H       1  LIG1       0.10999999999999999
     77 H           8.7286    3.1049   -1.0318 H       1  LIG1       0.10999999999999999
     78 H           8.0172    2.2544    0.3457 H       1  LIG1          0.13
     79 H          10.0010    1.0711   -0.7778 H       1  LIG1       0.18999999999999995
     80 H          10.1158    1.3005    1.0009 H       1  LIG1       0.18999999999999995
     81 H          12.0053   -0.1823   -1.5305 H       1  LIG1       0.19999999999999996
     82 H          11.8145   -0.1067    0.2175 H       1  LIG1       0.19999999999999996
     83 H          -5.3939    0.6177   -1.3738 H       1  LIG1       0.19999999999999996
     84 H          -5.1224    0.8425   -3.1246 H       1  LIG1       0.20999999999999996
     85 H           0.3120    1.1776    2.3276 H       1  LIG1       0.18000000000000005
     86 H           0.0318    2.6595    1.3748 H       1  LIG1       0.17000000000000004
     87 H          -6.8657   -4.1831    3.1615 H       1  LIG1       0.17000000000000004
     88 H          -9.5676    0.0093   -0.9160 H       1  LIG1       0.20999999999999996
     89 H          14.2736   -0.4615    0.5021 H       1  LIG1          0.12
     90 H          -5.9478   -1.5044   -3.5293 H       1  LIG1       0.16000000000000003
     91 H          -9.5188   -1.3765   -2.4972 H       1  LIG1       0.10999999999999999
     92 H          -7.8400    0.3863   -2.0747 H       1  LIG1          0.13
     93 H           2.1128    3.8277    2.2434 H       1  LIG1       0.10999999999999999
     94 H          -7.8401   -3.2854   -1.3729 H       1  LIG1       0.18000000000000005
     95 H          -9.8336    0.0451    3.8897 H       1  LIG1          0.37
     96 H          -9.1782   -0.9074    5.1367 H       1  LIG1          0.36
     97 H          14.7307    0.4377   -1.5877 H       1  LIG1       0.42000000000000004
     98 H          -9.1696   -1.5049   -4.8008 H       1  LIG1       0.42000000000000004
     99 H           2.8155    2.0816    4.1195 H       1  LIG1           0.4
    100 H          -5.2317   -1.6612   -0.3402 H       1  LIG1           0.5
    101 H          -0.7661   -2.0062   -0.9888 H       1  LIG1           0.48
@<TRIPOS>BOND
     1    44    54    2
     2    43    98    1
     3    43    54    1
     4    54    52    1
     5    54    42    1
     6    52    22    1
     7    39    21    1
     8    90    17    1
     9    84    12    1
    10    22    21    1
    11    22    17    1
    12    22    92    1
    13    21    91    1
    14    21    27    1
    15    17    12    1
    16    17    51    1
    17    12    49    1
    18    12    83    1
    19    49    55    1
    20    97    36    1
    21    36    16    1
    22    81    11    1
    23    51    27    1
    24    27    94    1
    25    27    35    1
    26    46    55    2
    27    72     6    1
    28    77     9    1
    29    38    19    2
    30   101    47    1
    31    55    53    1
    32    55    45    1
    33    65     3    1
    34    88    15    1
    35    79    10    1
    36    19    11    1
    37    19    57    1
    38    47    56    1
    39    11    16    1
    40    11    82    1
    41    16     6    1
    42    16    89    1
    43    71     6    1
    44     6     5    1
    45   100    45    1
    46    53    56    1
    47    35    15   ar
    48    35    25   ar
    49    64     3    1
    50    57    10    1
    51    66     3    1
    52     3    28    1
    53    15    34   ar
    54    68     4    1
    55     9    10    1
    56     9    78    1
    57     9    30    1
    58    10    80    1
    59    73     7    1
    60    50    56    1
    61    50    13    1
    62    56    48    2
    63    61     2    1
    64     5    70    1
    65     5     4    1
    66     5    69    1
    67    67     4    1
    68    30    18   am
    69     4     1    1
    70     7    74    1
    71     7    18    1
    72     7     8    1
    73    25    33   ar
    74    25    20   ar
    75    34    20   ar
    76    62     2    1
    77    28     2    1
    78    28    13    1
    79    28    23    1
    80     2    63    1
    81    18    37    2
    82    86    13    1
    83    13    85    1
    84    33    14   ar
    85    31     8    1
    86    31    26   am
    87    20    24   ar
    88    76     8    1
    89     8    75    1
    90     1    58    1
    91     1    59    1
    92     1    60    1
    93    93    23    1
    94    23    26    1
    95    23    40    1
    96    26    41    2
    97    14    87    1
    98    14    32   ar
    99    24    32   ar
   100    24    29    1
   101    40    99    1
   102    95    29    1
   103    29    96    1
