@<TRIPOS>MOLECULE
VLHZUYUOEGBBJB-UHFFFAOYSA-M	6045354	-932.3960050057595
 56 55 0 0 0
SMALL
MULLIKEN NwChem

@<TRIPOS>ATOM
      1 C           2.2088    1.6396    0.7879 C.3     1  LIG1      -0.2599999999999998
      2 C           1.6004    2.2551   -0.4879 C.3     1  LIG1      -0.2699999999999996
      3 C           1.7390    0.2169    1.1263 C.3     1  LIG1      -0.2699999999999996
      4 C           2.2173    1.8337   -1.8352 C.3     1  LIG1      -0.2699999999999996
      5 C           2.2656   -0.3178    2.4695 C.3     1  LIG1      -0.2699999999999996
      6 C           2.0140    0.3772   -2.2904 C.3     1  LIG1      -0.2699999999999996
      7 C           1.8259    0.4702    3.7184 C.3     1  LIG1      -0.2699999999999996
      8 C           0.5538   -0.1073   -2.3089 C.3     1  LIG1      -0.2699999999999996
      9 C           0.3057    0.6556    3.8676 C.3     1  LIG1      -0.2699999999999996
     10 C          -0.4161    0.7615   -3.1275 C.3     1  LIG1      -0.2699999999999996
     11 C          -0.5092   -0.6491    3.8745 C.3     1  LIG1      -0.2699999999999996
     12 C          -0.0489    0.9332   -4.6117 C.3     1  LIG1      -0.2699999999999996
     13 C          -0.1065   -1.6646    4.9594 C.3     1  LIG1      -0.28000000000000025
     14 C           0.0485   -0.3810   -5.4109 C.3     1  LIG1        -0.25
     15 C          -0.1635   -1.1436    6.4055 C.3     1  LIG1      -0.2699999999999996
     16 C          -1.1714   -1.2983   -5.2239 C.3     1  LIG1       -0.33999999999999986
     17 C          -1.5379   -0.6075    6.8197 C.3     1  LIG1       -0.05999999999999961
     18 C          -2.5141   -0.5089   -5.4405 C.2     1  LIG1       0.5300000000000002
     19 O          -2.5774   -1.5750    6.6874 O.3     1  LIG1      -0.6699999999999999
     20 O          -2.5870    0.1057   -6.5362 O.co2   1  LIG1      -0.6799999999999997
     21 O          -3.3348   -0.5507   -4.4875 O.co2   1  LIG1      -0.6799999999999997
     22 H           1.9561    2.2974    1.6314 H       1  LIG1          0.14
     23 H           3.3078    1.6520    0.7162 H       1  LIG1          0.13
     24 H           0.5197    2.0616   -0.4997 H       1  LIG1          0.14
     25 H           1.7046    3.3472   -0.4149 H       1  LIG1          0.13
     26 H           0.6408    0.1947    1.1239 H       1  LIG1          0.14
     27 H           2.0469   -0.4746    0.3360 H       1  LIG1          0.14
     28 H           1.7975    2.4917   -2.6067 H       1  LIG1          0.14
     29 H           3.2971    2.0492   -1.8083 H       1  LIG1          0.13
     30 H           1.9494   -1.3646    2.5763 H       1  LIG1          0.14
     31 H           3.3650   -0.3378    2.4425 H       1  LIG1          0.13
     32 H           2.4302    0.2851   -3.3021 H       1  LIG1          0.13
     33 H           2.6151   -0.2955   -1.6624 H       1  LIG1          0.13
     34 H           2.2218   -0.0382    4.6089 H       1  LIG1          0.14
     35 H           2.2947    1.4626    3.7124 H       1  LIG1          0.13
     36 H           0.5371   -1.1311   -2.7040 H       1  LIG1          0.13
     37 H           0.1807   -0.1799   -1.2776 H       1  LIG1          0.13
     38 H           0.1106    1.2154    4.7928 H       1  LIG1          0.14
     39 H          -0.0644    1.2906    3.0526 H       1  LIG1          0.14
     40 H          -1.4199    0.3230   -3.0816 H       1  LIG1          0.13
     41 H          -0.4928    1.7569   -2.6637 H       1  LIG1          0.13
     42 H          -1.5737   -0.3929    3.9798 H       1  LIG1          0.13
     43 H          -0.4242   -1.1372    2.8958 H       1  LIG1          0.14
     44 H          -0.8325    1.5359   -5.0837 H       1  LIG1          0.12
     45 H           0.8935    1.4965   -4.7121 H       1  LIG1          0.13
     46 H          -0.7562   -2.5470    4.8784 H       1  LIG1          0.13
     47 H           0.9083   -2.0294    4.7582 H       1  LIG1          0.14
     48 H           0.1092   -0.1167   -6.4733 H       1  LIG1          0.12
     49 H           0.9788   -0.9150   -5.1524 H       1  LIG1          0.12
     50 H           0.1106   -1.9598    7.0863 H       1  LIG1          0.14
     51 H           0.5784   -0.3464    6.5503 H       1  LIG1          0.14
     52 H          -1.1114   -2.1152   -5.9591 H       1  LIG1          0.12
     53 H          -1.1734   -1.7558   -4.2262 H       1  LIG1       0.10999999999999999
     54 H          -1.5274   -0.3338    7.8805 H       1  LIG1       0.15000000000000002
     55 H          -1.7775    0.3072    6.2544 H       1  LIG1          0.14
     56 H          -2.7088   -1.7317    5.7397 H       1  LIG1       0.43000000000000005
@<TRIPOS>BOND
     1    20    18   ar
     2    48    14    1
     3    52    16    1
     4    18    16    1
     5    18    21   ar
     6    14    16    1
     7    14    49    1
     8    14    12    1
     9    16    53    1
    10    44    12    1
    11    45    12    1
    12    12    10    1
    13    32     6    1
    14    10    40    1
    15    10    41    1
    16    10     8    1
    17    36     8    1
    18    28     4    1
    19     8     6    1
    20     8    37    1
    21     6     4    1
    22     6    33    1
    23     4    29    1
    24     4     2    1
    25    24     2    1
    26     2    25    1
    27     2     1    1
    28    27     3    1
    29    23     1    1
    30     1     3    1
    31     1    22    1
    32    26     3    1
    33     3     5    1
    34    31     5    1
    35     5    30    1
    36     5     7    1
    37    43    11    1
    38    39     9    1
    39    35     7    1
    40     7     9    1
    41     7    34    1
    42     9    11    1
    43     9    38    1
    44    11    42    1
    45    11    13    1
    46    47    13    1
    47    46    13    1
    48    13    15    1
    49    56    19    1
    50    55    17    1
    51    15    51    1
    52    15    17    1
    53    15    50    1
    54    19    17    1
    55    17    54    1
