@<TRIPOS>MOLECULE
VLYUGYAKYZETRF-SSDOTTSWSA-N	6045356	-1241.2372493048317
 29 28 0 0 0
SMALL
MULLIKEN NwChem

@<TRIPOS>ATOM
      1 C           0.9315    0.4530    1.3507 C.3     1  LIG1      -0.28000000000000025
      2 C           0.2681    0.7758    2.6994 C.3     1  LIG1      -0.2699999999999996
      3 C           0.2447   -0.6592    0.5372 C.3     1  LIG1      -0.2699999999999996
      4 C          -1.0717    1.5338    2.5900 C.3     1  LIG1      -0.33999999999999986
      5 C           0.2324   -0.1948   -2.0096 C.3     1  LIG1        -0.25
      6 C           0.0747    1.3246   -1.8690 C.3     1  LIG1      -0.4299999999999997
      7 C           0.9189   -0.9182   -0.8316 C.3     1  LIG1       -0.2599999999999998
      8 C          -2.2260    0.6630    2.1369 C.3     1  LIG1       0.4900000000000002
      9 N          -2.7089   -0.3698    2.7054 N.3     1  LIG1      -0.6900000000000004
     10 O          -2.7526    1.0756    0.9510 O.3     1  LIG1      -0.5999999999999996
     11 S           1.6439    2.2908   -2.0065 S.3     1  LIG1      -0.16000000000000014
     12 S           1.0621   -2.7313   -1.2188 S.3     1  LIG1      -0.1700000000000017
     13 H           1.9707    0.1448    1.5360 H       1  LIG1       0.15000000000000002
     14 H           0.9909    1.3803    0.7686 H       1  LIG1          0.14
     15 H           0.1204   -0.1483    3.2746 H       1  LIG1       0.15000000000000002
     16 H           0.9526    1.3991    3.2856 H       1  LIG1       0.15000000000000002
     17 H           0.2544   -1.5738    1.1384 H       1  LIG1       0.16000000000000003
     18 H          -0.8080   -0.4167    0.3620 H       1  LIG1       0.16000000000000003
     19 H          -1.3338    1.9403    3.5749 H       1  LIG1       0.18000000000000005
     20 H          -0.9660    2.3831    1.9075 H       1  LIG1       0.17000000000000004
     21 H           0.7799   -0.4147   -2.9302 H       1  LIG1       0.16000000000000003
     22 H          -0.7743   -0.6225   -2.1267 H       1  LIG1       0.17000000000000004
     23 H          -0.5280    1.7024   -2.7021 H       1  LIG1       0.19999999999999996
     24 H          -0.4563    1.5929   -0.9516 H       1  LIG1       0.19999999999999996
     25 H           1.9724   -0.6150   -0.7840 H       1  LIG1       0.18999999999999995
     26 H          -2.2204   -0.5622    3.5837 H       1  LIG1       0.31999999999999995
     27 H          -3.4759    0.4495    0.7514 H       1  LIG1       0.43000000000000005
     28 H           2.3164    1.6822   -1.0057 H       1  LIG1          0.14
     29 H          -0.2675   -2.9774   -1.2316 H       1  LIG1           0.14
@<TRIPOS>BOND
     1    21     5    1
     2    23     6    1
     3    22     5    1
     4     5     6    1
     5     5     7    1
     6    11     6    1
     7    11    28    1
     8     6    24    1
     9    29    12    1
    10    12     7    1
    11     7    25    1
    12     7     3    1
    13    18     3    1
    14     3    17    1
    15     3     1    1
    16    27    10    1
    17    14     1    1
    18    10     8    1
    19     1    13    1
    20     1     2    1
    21    20     4    1
    22     8     4    1
    23     8     9    1
    24     4     2    1
    25     4    19    1
    26     2    15    1
    27     2    16    1
    28     9    26    1
