@<TRIPOS>MOLECULE
VMEHOTODTPXCKT-YFKPBYRVSA-N	6045358	-325.8144821699632
 16 15 0 0 0
SMALL
MULLIKEN NwChem

@<TRIPOS>ATOM
      1 C           0.1099    0.6684   -2.2952 C.3     1  LIG1      -0.46999999999999975
      2 C          -0.3672    1.4589    0.6773 C.3     1  LIG1      -0.4800000000000004
      3 C          -0.4055   -0.2866   -1.2144 C.3     1  LIG1      -0.2599999999999998
      4 C          -0.4559   -0.9528    1.1572 C.1     1  LIG1       0.3600000000000003
      5 C           0.0821    0.0639    0.2091 C.3     1  LIG1          0.25
      6 N          -0.8578   -1.7330    1.9170 N.1     1  LIG1      -0.5499999999999998
      7 O           1.5055   -0.0320    0.1762 O.3     1  LIG1      -0.6500000000000004
      8 H          -0.3016    1.6771   -2.1835 H       1  LIG1       0.16000000000000003
      9 H          -0.1831    0.3017   -3.2846 H       1  LIG1       0.16000000000000003
     10 H           1.2009    0.7353   -2.2624 H       1  LIG1       0.16000000000000003
     11 H          -1.4567    1.5570    0.6361 H       1  LIG1       0.18000000000000005
     12 H          -0.0490    1.6391    1.7102 H       1  LIG1       0.18000000000000005
     13 H           0.0876    2.2178    0.0359 H       1  LIG1       0.18999999999999995
     14 H          -1.5015   -0.3077   -1.2058 H       1  LIG1       0.17000000000000004
     15 H          -0.0651   -1.3054   -1.4293 H       1  LIG1       0.17000000000000004
     16 H           1.8481    0.2084    1.0523 H       1  LIG1       0.43999999999999995
@<TRIPOS>BOND
     1     9     1    1
     2     1    10    1
     3     1     8    1
     4     1     3    1
     5    15     3    1
     6     3    14    1
     7     3     5    1
     8    13     2    1
     9     7     5    1
    10     7    16    1
    11     5     2    1
    12     5     4    1
    13    11     2    1
    14     2    12    1
    15     4     6    3
