@<TRIPOS>MOLECULE
VNYSSYRCGWBHLG-AMOLWHMGSA-M	6045362	-1081.3829360027726
 55 54 0 0 0
SMALL
MULLIKEN NwChem

@<TRIPOS>ATOM
      1 C           1.1917   -5.9528    1.5933 C.3     1  LIG1      -0.45999999999999996
      2 C           1.8754   -5.2427    0.4183 C.3     1  LIG1        -0.25
      3 C           1.3449   -3.8249    0.1511 C.3     1  LIG1      -0.2599999999999998
      4 C           1.4957   -2.8304    1.3085 C.3     1  LIG1      -0.2599999999999998
      5 C           2.9469   -2.5872    1.7837 C.3     1  LIG1      -0.3099999999999996
      6 C           3.9236   -2.1837    0.6969 C.2     1  LIG1      -0.13999999999999968
      7 C           0.2074    3.5088    0.2380 C.2     1  LIG1      -0.13999999999999968
      8 C          -1.0820    3.1814   -0.0152 C.2     1  LIG1      -0.17999999999999972
      9 C           3.9106   -1.0340    0.0117 C.2     1  LIG1      -0.1200000000000001
     10 C           1.2110    2.4660    0.1419 C.2     1  LIG1      -0.15000000000000036
     11 C          -2.2537    4.0245    0.0571 C.2     1  LIG1      -0.15000000000000036
     12 C          -4.1804   -0.2837    0.1655 C.3     1  LIG1      -0.2699999999999996
     13 C           2.9067    0.0724    0.1741 C.3     1  LIG1      -0.33000000000000007
     14 C           2.5432    2.6001    0.2882 C.2     1  LIG1      -0.1900000000000004
     15 C          -3.5007    3.5851   -0.2211 C.2     1  LIG1      -0.16999999999999993
     16 C          -3.7894    1.1725    0.4800 C.3     1  LIG1      -0.2999999999999998
     17 C          -3.2725   -1.0461   -0.8282 C.3     1  LIG1       -0.33999999999999986
     18 C           3.5336    1.4759    0.1078 C.3     1  LIG1       0.08999999999999986
     19 C          -3.8794    2.1770   -0.6972 C.3     1  LIG1       0.1299999999999999
     20 C          -1.7657   -0.8900   -0.4896 C.2     1  LIG1       0.5300000000000002
     21 O           4.2703    1.6622   -1.1253 O.3     1  LIG1      -0.6600000000000001
     22 O          -3.1605    1.7843   -1.8499 O.3     1  LIG1      -0.7400000000000002
     23 O          -1.2285   -1.7753    0.2010 O.co2   1  LIG1      -0.5999999999999996
     24 O          -1.2157    0.1825   -0.9300 O.co2   1  LIG1      -0.6300000000000008
     25 H           1.3826   -5.4344    2.5399 H       1  LIG1       0.15000000000000002
     26 H           1.5461   -6.9861    1.7025 H       1  LIG1          0.14
     27 H           0.1041   -5.9808    1.4508 H       1  LIG1          0.14
     28 H           2.9601   -5.2074    0.6000 H       1  LIG1          0.14
     29 H           1.7433   -5.8487   -0.4901 H       1  LIG1          0.13
     30 H           1.8619   -3.4168   -0.7279 H       1  LIG1          0.12
     31 H           0.2796   -3.8574   -0.1063 H       1  LIG1          0.12
     32 H           1.0202   -1.9000    0.9871 H       1  LIG1          0.14
     33 H           0.9040   -3.1700    2.1700 H       1  LIG1          0.12
     34 H           2.9216   -1.8100    2.5620 H       1  LIG1       0.15000000000000002
     35 H           3.3278   -3.4913    2.2786 H       1  LIG1          0.14
     36 H           4.6912   -2.9159    0.4412 H       1  LIG1          0.13
     37 H           0.5082    4.5237    0.5081 H       1  LIG1          0.14
     38 H          -1.2451    2.1456   -0.2886 H       1  LIG1       0.18000000000000005
     39 H           4.6620   -0.8612   -0.7581 H       1  LIG1          0.13
     40 H           0.7876    1.4845   -0.0747 H       1  LIG1          0.14
     41 H          -2.1141    5.0621    0.3688 H       1  LIG1          0.14
     42 H          -4.1728   -0.8310    1.1188 H       1  LIG1          0.14
     43 H          -5.2191   -0.3084   -0.2002 H       1  LIG1          0.14
     44 H           2.1455   -0.0198   -0.6152 H       1  LIG1       0.16000000000000003
     45 H           2.3596   -0.0252    1.1173 H       1  LIG1       0.16000000000000003
     46 H           2.9788    3.5832    0.4758 H       1  LIG1          0.14
     47 H          -4.3283    4.2852   -0.0946 H       1  LIG1          0.14
     48 H          -2.7747    1.1893    0.8883 H       1  LIG1       0.15000000000000002
     49 H          -4.4466    1.5472    1.2794 H       1  LIG1          0.14
     50 H          -3.5307   -2.1108   -0.7901 H       1  LIG1          0.13
     51 H          -3.4571   -0.6758   -1.8406 H       1  LIG1          0.14
     52 H           4.3126    1.5435    0.8795 H       1  LIG1       0.15000000000000002
     53 H          -4.9391    2.2229   -1.0010 H       1  LIG1          0.12
     54 H           3.5895    1.7513   -1.8133 H       1  LIG1       0.41000000000000003
     55 H          -2.3851    1.2094   -1.5767 H       1  LIG1       0.43999999999999995
@<TRIPOS>BOND
     1    22    55    1
     2    22    19    1
     3    51    17    1
     4    54    21    1
     5    21    18    1
     6    53    19    1
     7    24    20   ar
     8    17    50    1
     9    17    20    1
    10    17    12    1
    11    39     9    1
    12    30     3    1
    13    19    15    1
    14    19    16    1
    15    44    13    1
    16    29     2    1
    17    20    23   ar
    18    38     8    1
    19    15    47    1
    20    15    11    2
    21    43    12    1
    22    31     3    1
    23    40    10    1
    24     8    11    1
    25     8     7    2
    26     9    13    1
    27     9     6    2
    28    11    41    1
    29    18    13    1
    30    18    14    1
    31    18    52    1
    32    10     7    1
    33    10    14    2
    34     3     2    1
    35     3     4    1
    36    12    16    1
    37    12    42    1
    38    13    45    1
    39     7    37    1
    40    14    46    1
    41     2    28    1
    42     2     1    1
    43    36     6    1
    44    16    48    1
    45    16    49    1
    46     6     5    1
    47    32     4    1
    48     4     5    1
    49     4    33    1
    50    27     1    1
    51     1    26    1
    52     1    25    1
    53     5    35    1
    54     5    34    1
