@<TRIPOS>MOLECULE
VOKUMXABRRXHAR-VKHMYHEASA-M	6045364	-381.19536188794405
 12 11 0 0 0
SMALL
MULLIKEN NwChem

@<TRIPOS>ATOM
      1 C           1.1030   -0.3372   -1.5383 C.3     1  LIG1      -0.4400000000000004
      2 C           1.1473    0.7442    0.7329 C.2     1  LIG1          0.25
      3 C           0.7089   -0.4267   -0.0714 C.3     1  LIG1         -0.25
      4 C          -0.9016   -0.6064    0.1777 C.2     1  LIG1       0.5199999999999996
      5 O           1.7046    1.7490    0.3036 O.2     1  LIG1      -0.4900000000000002
      6 O          -1.1958   -0.7841    1.3784 O.co2   1  LIG1      -0.6500000000000004
      7 O          -1.5918   -0.5521   -0.8569 O.co2   1  LIG1      -0.6300000000000008
      8 H           0.6109    0.5242   -1.9977 H       1  LIG1          0.14
      9 H           0.7650   -1.2290   -2.0747 H       1  LIG1          0.14
     10 H           2.1886   -0.2219   -1.6651 H       1  LIG1          0.14
     11 H           0.8764    0.6662    1.8087 H       1  LIG1       0.10999999999999999
     12 H           1.1145   -1.3253    0.4164 H       1  LIG1       0.16000000000000003
@<TRIPOS>BOND
     1     9     1    1
     2     8     1    1
     3    10     1    1
     4     1     3    1
     5     7     4   ar
     6     3     4    1
     7     3    12    1
     8     3     2    1
     9     4     6   ar
    10     5     2    2
    11     2    11    1
