@<TRIPOS>MOLECULE
VOKUMXABRRXHAR-GSVOUGTGSA-M	6045363	-381.192185162921
 12 11 0 0 0
SMALL
MULLIKEN NwChem

@<TRIPOS>ATOM
      1 C           0.9154    1.4829   -0.2338 C.3     1  LIG1      -0.45999999999999996
      2 C           0.9655   -1.0277   -0.2624 C.2     1  LIG1          0.25
      3 C           0.3777    0.1881    0.3723 C.3     1  LIG1       -0.21999999999999975
      4 C          -1.2295    0.1172    0.1735 C.2     1  LIG1       0.5199999999999996
      5 O           1.7538   -1.0571   -1.1945 O.2     1  LIG1      -0.4800000000000004
      6 O          -1.8996    0.4649    1.1656 O.co2   1  LIG1      -0.6500000000000004
      7 O          -1.5698   -0.2490   -0.9754 O.co2   1  LIG1      -0.6600000000000001
      8 H           0.6473    1.5153   -1.2946 H       1  LIG1          0.14
      9 H           2.0087    1.5599   -0.1591 H       1  LIG1       0.15000000000000002
     10 H           0.4624    2.3466    0.2671 H       1  LIG1       0.15000000000000002
     11 H           0.6067   -1.9869    0.1862 H       1  LIG1          0.12
     12 H           0.5624    0.1401    1.4544 H       1  LIG1           0.14
@<TRIPOS>BOND
     1     8     1    1
     2     5     2    2
     3     7     4   ar
     4     2    11    1
     5     2     3    1
     6     1     9    1
     7     1    10    1
     8     1     3    1
     9     4     3    1
    10     4     6   ar
    11     3    12    1
