@<TRIPOS>MOLECULE
VOXZDWNPVJITMN-ZBRFXRBCSA-N	6045366	-850.5128818401965
 44 47 0 0 0
SMALL
MULLIKEN NwChem

@<TRIPOS>ATOM
      1 C           2.0812   -1.0605    2.1146 C.3     1  LIG1      -0.4800000000000004
      2 C          -1.7138    2.1856    0.1382 C.3     1  LIG1      -0.34999999999999964
      3 C           0.2337    2.1386   -3.7232 C.ar    1  LIG1      -0.20000000000000018
      4 C          -1.8248    0.8260    0.8329 C.3     1  LIG1      -0.28000000000000025
      5 C           0.3403    1.0400   -2.8785 C.ar    1  LIG1      -0.23000000000000043
      6 C          -0.7964   -1.1902    3.0681 C.3     1  LIG1      -0.29000000000000004
      7 C          -0.1477   -2.4958    3.6192 C.3     1  LIG1      -0.3099999999999996
      8 C           1.1674   -1.0093   -0.8665 C.3     1  LIG1      -0.29000000000000004
      9 C           1.2474   -2.2495    0.0489 C.3     1  LIG1      -0.28000000000000025
     10 C          -1.1370    3.2237   -2.0657 C.ar    1  LIG1      -0.28000000000000025
     11 C          -1.0268    2.1167   -1.2146 C.ar    1  LIG1      0.09999999999999964
     12 C          -0.5127    3.2455   -3.3117 C.ar    1  LIG1       0.33999999999999986
     13 C          -0.2714    0.9972   -1.6143 C.ar    1  LIG1      0.09999999999999964
     14 C          -0.1697   -0.2445   -0.7269 C.3     1  LIG1      -0.16000000000000014
     15 C          -0.4855    0.0882    0.7551 C.3     1  LIG1      -0.09999999999999964
     16 C          -0.4430   -1.2042    1.5672 C.3     1  LIG1      -0.08999999999999986
     17 C           0.6478   -3.1067    2.4413 C.3     1  LIG1       0.15000000000000036
     18 C           0.9371   -1.9007    1.5118 C.3     1  LIG1      0.05999999999999961
     19 O          -0.5975    4.3098   -4.1697 O.3     1  LIG1      -0.6899999999999995
     20 O           1.7863   -3.7958    2.9453 O.3     1  LIG1      -0.6899999999999995
     21 H           1.8526   -0.7093    3.1249 H       1  LIG1       0.15000000000000002
     22 H           2.3156   -0.1833    1.5065 H       1  LIG1       0.15000000000000002
     23 H           2.9836   -1.6749    2.1876 H       1  LIG1          0.14
     24 H          -2.7052    2.6431    0.0260 H       1  LIG1       0.15000000000000002
     25 H          -1.1405    2.8670    0.7851 H       1  LIG1       0.16000000000000003
     26 H           0.7152    2.1555   -4.6957 H       1  LIG1       0.15000000000000002
     27 H          -2.6028    0.2149    0.3526 H       1  LIG1          0.14
     28 H          -2.1313    0.9673    1.8761 H       1  LIG1          0.14
     29 H           0.9200    0.1900   -3.2234 H       1  LIG1       0.15000000000000002
     30 H          -0.3762   -0.3037    3.5577 H       1  LIG1          0.14
     31 H          -1.8777   -1.1586    3.2340 H       1  LIG1          0.14
     32 H          -0.8885   -3.2021    4.0058 H       1  LIG1       0.15000000000000002
     33 H           0.5519   -2.2888    4.4351 H       1  LIG1       0.15000000000000002
     34 H           1.9964   -0.3227   -0.6550 H       1  LIG1          0.14
     35 H           1.3044   -1.3404   -1.9016 H       1  LIG1       0.15000000000000002
     36 H           2.2416   -2.7097   -0.0459 H       1  LIG1          0.13
     37 H           0.5183   -2.9958   -0.3014 H       1  LIG1          0.13
     38 H          -1.7243    4.0841   -1.7437 H       1  LIG1       0.15000000000000002
     39 H          -0.9614   -0.9429   -1.0516 H       1  LIG1          0.14
     40 H           0.2912    0.7714    1.1321 H       1  LIG1          0.13
     41 H          -1.1558   -1.8965    1.0855 H       1  LIG1          0.12
     42 H           0.0031   -3.8127    1.8889 H       1  LIG1          0.12
     43 H          -1.1393    5.0011   -3.7590 H       1  LIG1       0.44999999999999996
     44 H           2.2388   -4.2015    2.1892 H       1  LIG1       0.43000000000000005
@<TRIPOS>BOND
     1    26     3    1
     2    19    43    1
     3    19    12    1
     4     3    12   ar
     5     3     5   ar
     6    12    10   ar
     7    29     5    1
     8     5    13   ar
     9    10    38    1
    10    10    11   ar
    11    35     8    1
    12    13    11   ar
    13    13    14    1
    14    11     2    1
    15    39    14    1
    16     8    14    1
    17     8    34    1
    18     8     9    1
    19    14    15    1
    20    37     9    1
    21    36     9    1
    22    24     2    1
    23     9    18    1
    24     2    25    1
    25     2     4    1
    26    27     4    1
    27    15     4    1
    28    15    40    1
    29    15    16    1
    30     4    28    1
    31    41    16    1
    32    22     1    1
    33    18    16    1
    34    18     1    1
    35    18    17    1
    36    16     6    1
    37    42    17    1
    38     1    23    1
    39     1    21    1
    40    44    20    1
    41    17    20    1
    42    17     7    1
    43     6    31    1
    44     6    30    1
    45     6     7    1
    46     7    32    1
    47     7    33    1
