@<TRIPOS>MOLECULE
VUQLHQFKACOHNZ-LURJTMIESA-M	6045368	-535.0037925546858
 19 18 0 0 0
SMALL
MULLIKEN NwChem

@<TRIPOS>ATOM
      1 C          -0.2264    1.6551   -2.0841 C.3     1  LIG1      -0.45999999999999996
      2 C           0.1004   -2.2748   -0.1496 C.3     1  LIG1      -0.5300000000000002
      3 C          -0.6246    1.5314   -0.6103 C.3     1  LIG1      -0.2599999999999998
      4 C          -0.6714   -1.0076   -0.4973 C.2     1  LIG1       0.4500000000000002
      5 C          -0.4503    0.2823    1.6328 C.2     1  LIG1          0.54
      6 C          -0.0729    0.2714    0.0610 C.3     1  LIG1       0.16000000000000014
      7 O          -1.6991   -1.0490   -1.1602 O.2     1  LIG1      -0.5299999999999994
      8 O           0.5670    0.0878    2.3606 O.co2   1  LIG1      -0.6500000000000004
      9 O          -1.6396    0.4688    1.9262 O.co2   1  LIG1      -0.6300000000000008
     10 O           1.3471    0.2038   -0.0324 O.3     1  LIG1      -0.7200000000000006
     11 H           0.8643    1.6123   -2.1836 H       1  LIG1          0.14
     12 H          -0.5766    2.6020   -2.5185 H       1  LIG1          0.14
     13 H          -0.6584    0.8345   -2.6669 H       1  LIG1       0.15000000000000002
     14 H           0.4137   -2.2475    0.8997 H       1  LIG1       0.17000000000000004
     15 H          -0.5185   -3.1533   -0.3545 H       1  LIG1       0.16000000000000003
     16 H           1.0160   -2.3123   -0.7503 H       1  LIG1       0.18999999999999995
     17 H          -0.2441    2.3955   -0.0495 H       1  LIG1          0.13
     18 H          -1.7114    1.5187   -0.4934 H       1  LIG1          0.14
     19 H           1.5653    0.1469    0.9389 H       1  LIG1       0.41000000000000003
@<TRIPOS>BOND
     1    13     1    1
     2    12     1    1
     3    11     1    1
     4     1     3    1
     5     7     4    2
     6    16     2    1
     7     3    18    1
     8     3    17    1
     9     3     6    1
    10     4     2    1
    11     4     6    1
    12    15     2    1
    13     2    14    1
    14    10     6    1
    15    10    19    1
    16     6     5    1
    17     5     9   ar
    18     5     8   ar
