@<TRIPOS>MOLECULE
VUTBELPREDJDDH-UHFFFAOYSA-N	6045369	-473.4183279166115
 19 19 0 0 0
SMALL
MULLIKEN NwChem

@<TRIPOS>ATOM
      1 C           1.2367   -3.0449    0.6691 C.3     1  LIG1       -0.5300000000000002
      2 C           1.2205    0.6320    0.5194 C.3     1  LIG1       -0.04999999999999982
      3 C          -0.4769    2.3972   -0.0370 C.3     1  LIG1       -0.1299999999999999
      4 C           0.8414   -1.6092    0.4646 C.2     1  LIG1          0.54
      5 C          -0.0228    0.9679    0.0737 C.2     1  LIG1       0.08000000000000007
      6 C          -0.9619   -0.1043   -0.2651 C.2     1  LIG1       0.45999999999999996
      7 N          -2.1504   -0.0665   -0.7460 N.pl3   1  LIG1        -0.75
      8 N           1.6893   -0.6489    0.7196 N.2     1  LIG1        -0.54
      9 N          -0.4198   -1.3790    0.0096 N.pl3   1  LIG1      -0.6299999999999999
     10 O          -0.9956    2.7351   -1.3268 O.3     1  LIG1      -0.6500000000000004
     11 H           1.1770   -3.6057   -0.2716 H       1  LIG1       0.19999999999999996
     12 H           0.5718   -3.5342    1.3912 H       1  LIG1       0.19999999999999996
     13 H           2.2603   -3.0825    1.0427 H       1  LIG1       0.18999999999999995
     14 H           1.9349    1.4169    0.7647 H       1  LIG1       0.17000000000000004
     15 H          -1.3119    2.5811    0.6501 H       1  LIG1       0.17000000000000004
     16 H           0.3442    3.0709    0.2538 H       1  LIG1       0.16000000000000003
     17 H          -2.4099    0.8975   -0.9562 H       1  LIG1       0.31000000000000005
     18 H          -1.0450   -2.1526   -0.1911 H       1  LIG1          0.38
     19 H          -0.3336    2.4679   -1.9844 H       1  LIG1       0.43000000000000005
@<TRIPOS>BOND
     1    19    10    1
     2    10     3    1
     3    17     7    1
     4     7     6    1
     5    11     1    1
     6     6     9    1
     7     6     5    2
     8    18     9    1
     9     3     5    1
    10     3    16    1
    11     3    15    1
    12     9     4    1
    13     5     2    1
    14     4     1    1
    15     4     8    2
    16     2     8    1
    17     2    14    1
    18     1    13    1
    19     1    12    1
