@<TRIPOS>MOLECULE
VVZNLLXLOKRQPH-NZIRWOIASA-N	6045372	-1948.1203161495598
 124 127 0 0 0
SMALL
MULLIKEN NwChem

@<TRIPOS>ATOM
      1 C           7.8385    4.1709    8.4576 C.3     1  LIG1      -0.45999999999999996
      2 C          -1.7556  -10.7502    2.9789 C.3     1  LIG1      -0.45999999999999996
      3 C          -3.1642  -10.2866    0.9470 C.3     1  LIG1      -0.45999999999999996
      4 C           0.0392   -8.4153    2.2466 C.3     1  LIG1      -0.46999999999999975
      5 C          -3.3389   -5.9274   -2.0279 C.3     1  LIG1      -0.4800000000000004
      6 C          -3.6227   -1.2368   -4.1203 C.3     1  LIG1      -0.4800000000000004
      7 C          -0.3087   -4.5231    0.8564 C.3     1  LIG1      -0.46999999999999975
      8 C           6.4955    4.8957    8.3075 C.3     1  LIG1      -0.2599999999999998
      9 C           6.4886    5.9841    7.2206 C.3     1  LIG1      -0.2599999999999998
     10 C           6.8422    5.4998    5.8032 C.3     1  LIG1      -0.2699999999999996
     11 C           5.9746    4.3461    5.2710 C.3     1  LIG1      -0.2699999999999996
     12 C           4.4593    4.6149    5.2642 C.3     1  LIG1      -0.2699999999999996
     13 C           4.0190    5.8615    4.4797 C.3     1  LIG1      -0.2599999999999998
     14 C           4.4287    5.8666    2.9893 C.3     1  LIG1      -0.3099999999999996
     15 C           3.9249    4.6613    2.2322 C.2     1  LIG1      -0.1299999999999999
     16 C           2.7676    4.5719    1.5652 C.2     1  LIG1      -0.1299999999999999
     17 C           1.7489    5.6694    1.3922 C.3     1  LIG1      -0.3200000000000003
     18 C           1.7765    6.3122   -0.0125 C.3     1  LIG1      -0.2599999999999998
     19 C           1.5332    5.3355   -1.1749 C.3     1  LIG1      -0.2699999999999996
     20 C           0.2217    4.5334   -1.0919 C.3     1  LIG1      -0.28000000000000025
     21 C          -1.0601    5.3830   -1.0023 C.3     1  LIG1      -0.29000000000000004
     22 C          -1.3744    6.2257   -2.2515 C.3     1  LIG1      -0.28000000000000025
     23 C          -1.9083    5.4143   -3.4552 C.3     1  LIG1       -0.3700000000000001
     24 C          -1.3261   -8.0416    0.2060 C.2     1  LIG1      -0.1200000000000001
     25 C          -2.0138   -6.9693   -0.1910 C.2     1  LIG1      -0.1200000000000001
     26 C          -0.7036    0.1398   -4.4301 C.2     1  LIG1      -0.23000000000000043
     27 C          -0.1407   -1.1636   -4.1089 C.2     1  LIG1      -0.23000000000000043
     28 C          -0.6338   -4.5366   -2.9728 C.3     1  LIG1      -0.3099999999999996
     29 C           0.3868   -3.2141   -1.1754 C.3     1  LIG1      -0.29000000000000004
     30 C          -2.9353    1.6344   -1.6383 C.3     1  LIG1      -0.2999999999999998
     31 C          -2.6522   -2.5477   -1.6300 C.3     1  LIG1      -0.2999999999999998
     32 C          -3.6548    0.3922   -2.1737 C.3     1  LIG1      -0.3099999999999996
     33 C          -2.0302   -3.2232   -0.3943 C.3     1  LIG1      -0.29000000000000004
     34 C          -2.4645    1.9009   -4.1294 C.3     1  LIG1       -0.3799999999999999
     35 C          -1.7738  -10.1190    1.5781 C.3     1  LIG1      -0.05999999999999961
     36 C          -1.3442   -8.6267    1.5967 C.3     1  LIG1      -0.11000000000000032
     37 C          -1.9276   -6.3222   -1.5537 C.3     1  LIG1      -0.1299999999999999
     38 C          -1.8903    0.5270   -3.9370 C.2     1  LIG1      0.13999999999999968
     39 C          -2.5501    2.6124   -2.7654 C.3     1  LIG1       0.1200000000000001
     40 C          -0.6337   -1.9328   -3.1177 C.2     1  LIG1      0.16999999999999993
     41 C          -0.8179   -5.2236   -1.5940 C.3     1  LIG1      -0.08999999999999986
     42 C           0.1078   -3.1839   -2.6998 C.3     1  LIG1      -0.17999999999999972
     43 C          -1.8259   -1.4219   -2.2981 C.3     1  LIG1      -0.16000000000000014
     44 C          -3.3268    4.9289   -3.1684 C.2     1  LIG1       0.5999999999999996
     45 C          -2.7432   -0.4484   -3.1198 C.3     1  LIG1      0.040000000000000036
     46 C          -0.7414   -4.0615   -0.5471 C.3     1  LIG1      0.09999999999999964
     47 O          -4.2605    5.6972   -3.1893 O.2     1  LIG1      -0.5299999999999994
     48 O          -3.5666    3.6386   -2.8187 O.3     1  LIG1      -0.4900000000000002
     49 H           8.0957    3.6047    7.5545 H       1  LIG1       0.15000000000000002
     50 H           7.8147    3.4635    9.2941 H       1  LIG1          0.14
     51 H           8.6523    4.8838    8.6446 H       1  LIG1          0.14
     52 H          -2.4062  -10.1895    3.6640 H       1  LIG1          0.14
     53 H          -2.1243  -11.7819    2.9429 H       1  LIG1          0.14
     54 H          -0.7514  -10.7754    3.4138 H       1  LIG1       0.15000000000000002
     55 H          -3.2078   -9.8567   -0.0583 H       1  LIG1          0.14
     56 H          -3.4382  -11.3459    0.8813 H       1  LIG1          0.14
     57 H          -3.9263   -9.7819    1.5561 H       1  LIG1          0.14
     58 H           0.0391   -8.6863    3.3077 H       1  LIG1       0.15000000000000002
     59 H           0.8035   -9.0228    1.7434 H       1  LIG1          0.14
     60 H           0.3411   -7.3655    2.1682 H       1  LIG1       0.15000000000000002
     61 H          -3.9759   -6.8188   -2.0502 H       1  LIG1          0.14
     62 H          -3.8145   -5.2052   -1.3579 H       1  LIG1       0.16000000000000003
     63 H          -3.3336   -5.5024   -3.0363 H       1  LIG1       0.15000000000000002
     64 H          -4.3750   -1.8434   -3.6043 H       1  LIG1       0.15000000000000002
     65 H          -4.1554   -0.5473   -4.7850 H       1  LIG1       0.15000000000000002
     66 H          -3.0061   -1.8975   -4.7382 H       1  LIG1       0.15000000000000002
     67 H          -1.1124   -5.0304    1.3964 H       1  LIG1       0.15000000000000002
     68 H           0.5379   -5.2170    0.7997 H       1  LIG1       0.15000000000000002
     69 H           0.0016   -3.6593    1.4586 H       1  LIG1          0.14
     70 H           5.7073    4.1594    8.0989 H       1  LIG1          0.14
     71 H           6.2270    5.3606    9.2658 H       1  LIG1          0.13
     72 H           5.4990    6.4609    7.2059 H       1  LIG1          0.14
     73 H           7.1994    6.7733    7.5047 H       1  LIG1          0.13
     74 H           6.7747    6.3560    5.1177 H       1  LIG1          0.14
     75 H           7.8940    5.1851    5.7777 H       1  LIG1          0.13
     76 H           6.3074    4.1012    4.2530 H       1  LIG1          0.14
     77 H           6.1628    3.4433    5.8677 H       1  LIG1          0.14
     78 H           3.9501    3.7350    4.8488 H       1  LIG1          0.13
     79 H           4.1012    4.7111    6.2977 H       1  LIG1          0.14
     80 H           2.9250    5.9402    4.5367 H       1  LIG1          0.13
     81 H           4.4206    6.7653    4.9575 H       1  LIG1          0.14
     82 H           4.0588    6.7905    2.5302 H       1  LIG1       0.15000000000000002
     83 H           5.5228    5.9078    2.9137 H       1  LIG1       0.15000000000000002
     84 H           4.5592    3.7756    2.2744 H       1  LIG1          0.14
     85 H           2.5324    3.6276    1.0734 H       1  LIG1          0.14
     86 H           0.7471    5.2603    1.5831 H       1  LIG1       0.15000000000000002
     87 H           1.8988    6.4559    2.1396 H       1  LIG1       0.15000000000000002
     88 H           1.0328    7.1196   -0.0443 H       1  LIG1          0.14
     89 H           2.7550    6.7877   -0.1573 H       1  LIG1          0.13
     90 H           1.5628    5.8989   -2.1165 H       1  LIG1          0.14
     91 H           2.3693    4.6255   -1.2279 H       1  LIG1          0.14
     92 H           0.1759    3.8702   -1.9664 H       1  LIG1       0.15000000000000002
     93 H           0.2578    3.8667   -0.2207 H       1  LIG1       0.15000000000000002
     94 H          -1.9157    4.7300   -0.7826 H       1  LIG1          0.14
     95 H          -0.9804    6.0546   -0.1385 H       1  LIG1       0.15000000000000002
     96 H          -2.1314    6.9799   -2.0068 H       1  LIG1       0.15000000000000002
     97 H          -0.4779    6.7729   -2.5675 H       1  LIG1       0.16000000000000003
     98 H          -2.0009    6.0806   -4.3172 H       1  LIG1       0.18000000000000005
     99 H          -1.2167    4.6150   -3.7327 H       1  LIG1       0.18000000000000005
    100 H          -0.6553   -8.5346   -0.5038 H       1  LIG1          0.12
    101 H          -2.6829   -6.4836    0.5220 H       1  LIG1          0.13
    102 H          -0.1257    0.8133   -5.0609 H       1  LIG1          0.13
    103 H           0.7507   -1.4811   -4.6468 H       1  LIG1          0.13
    104 H          -0.0496   -5.1729   -3.6471 H       1  LIG1          0.14
    105 H          -1.5844   -4.3582   -3.4803 H       1  LIG1       0.15000000000000002
    106 H           0.4574   -2.2144   -0.7307 H       1  LIG1          0.14
    107 H           1.3493   -3.7103   -0.9936 H       1  LIG1          0.14
    108 H          -3.5549    2.1686   -0.9114 H       1  LIG1       0.16000000000000003
    109 H          -2.0200    1.3304   -1.1155 H       1  LIG1       0.16000000000000003
    110 H          -2.9256   -3.2925   -2.3776 H       1  LIG1       0.16000000000000003
    111 H          -3.6028   -2.1227   -1.2901 H       1  LIG1          0.14
    112 H          -4.5522    0.7087   -2.7195 H       1  LIG1       0.15000000000000002
    113 H          -4.0134   -0.2175   -1.3390 H       1  LIG1       0.15000000000000002
    114 H          -2.7990   -3.8600    0.0621 H       1  LIG1          0.14
    115 H          -1.8218   -2.4368    0.3473 H       1  LIG1          0.13
    116 H          -3.4863    1.8469   -4.5293 H       1  LIG1       0.17000000000000004
    117 H          -1.8733    2.4935   -4.8366 H       1  LIG1       0.17000000000000004
    118 H          -1.0456  -10.6589    0.9510 H       1  LIG1          0.12
    119 H          -2.0885   -8.0750    2.1921 H       1  LIG1          0.12
    120 H          -1.5687   -7.0879   -2.2582 H       1  LIG1          0.13
    121 H          -1.5881    3.0608   -2.5221 H       1  LIG1       0.17000000000000004
    122 H           0.1047   -5.7941   -1.4104 H       1  LIG1          0.12
    123 H           1.0583   -3.1821   -3.2435 H       1  LIG1          0.13
    124 H          -1.3867   -0.8215   -1.4810 H       1  LIG1       0.15000000000000002
@<TRIPOS>BOND
     1   102    26    1
     2   117    34    1
     3    65     6    1
     4    66     6    1
     5   103    27    1
     6   116    34    1
     7    26    27    1
     8    26    38    2
     9    98    23    1
    10    34    38    1
    11    34    39    1
    12     6    64    1
    13     6    45    1
    14    27    40    2
    15    38    45    1
    16    99    23    1
    17   104    28    1
    18   105    28    1
    19    23    44    1
    20    23    22    1
    21   123    42    1
    22    47    44    2
    23    44    48    1
    24    45    43    1
    25    45    32    1
    26    40    42    1
    27    40    43    1
    28    63     5    1
    29    28    42    1
    30    28    41    1
    31    48    39    1
    32    39   121    1
    33    39    30    1
    34   112    32    1
    35    42    29    1
    36    97    22    1
    37   110    31    1
    38    43    31    1
    39    43   124    1
    40   120    37    1
    41    22    96    1
    42    22    21    1
    43    32    30    1
    44    32   113    1
    45    90    19    1
    46    61     5    1
    47     5    37    1
    48     5    62    1
    49    92    20    1
    50    30   109    1
    51    30   108    1
    52    31   111    1
    53    31    33    1
    54    41    37    1
    55    41   122    1
    56    41    46    1
    57    37    25    1
    58    91    19    1
    59    29   107    1
    60    29   106    1
    61    29    46    1
    62    19    20    1
    63    19    18    1
    64    20    21    1
    65    20    93    1
    66    21    94    1
    67    21    95    1
    68    46    33    1
    69    46     7    1
    70   100    24    1
    71    33   114    1
    72    33   115    1
    73    25    24    2
    74    25   101    1
    75    89    18    1
    76    55     3    1
    77    88    18    1
    78    18    17    1
    79    24    36    1
    80    68     7    1
    81     7    67    1
    82     7    69    1
    83    56     3    1
    84     3    57    1
    85     3    35    1
    86   118    35    1
    87    85    16    1
    88    17    16    1
    89    17    86    1
    90    17    87    1
    91    16    15    2
    92    35    36    1
    93    35     2    1
    94    36   119    1
    95    36     4    1
    96    59     4    1
    97    60     4    1
    98    15    84    1
    99    15    14    1
   100     4    58    1
   101    82    14    1
   102    83    14    1
   103    53     2    1
   104     2    54    1
   105     2    52    1
   106    14    13    1
   107    76    11    1
   108    13    80    1
   109    13    81    1
   110    13    12    1
   111    78    12    1
   112    74    10    1
   113    12    11    1
   114    12    79    1
   115    11    10    1
   116    11    77    1
   117    75    10    1
   118    10     9    1
   119    72     9    1
   120     9    73    1
   121     9     8    1
   122    49     1    1
   123    70     8    1
   124     8     1    1
   125     8    71    1
   126     1    51    1
   127     1    50    1
