@<TRIPOS>MOLECULE
VWDLOXMZIGUBKM-OYTRLDRLSA-N	6045373	-1819.1845394183008
 99 103 0 0 0
SMALL
MULLIKEN NwChem

@<TRIPOS>ATOM
      1 C           9.2424   -1.2800   -0.4850 C.3     1  LIG1      -0.45999999999999996
      2 C           7.8302   -5.4843    0.7736 C.3     1  LIG1      -0.45999999999999996
      3 C           8.9563   -4.5999   -1.2878 C.3     1  LIG1      -0.46999999999999975
      4 C           4.4727   -3.4028    3.7362 C.3     1  LIG1      -0.45999999999999996
      5 C          -0.8703   -0.6491   -2.9496 C.3     1  LIG1      -0.4800000000000004
      6 C           3.4603   -0.7677    0.0319 C.3     1  LIG1      -0.4900000000000002
      7 C           8.0314   -1.6778    0.3663 C.3     1  LIG1      -0.2699999999999996
      8 C           5.4810   -2.5490    1.6366 C.2     1  LIG1      -0.09999999999999964
      9 C           6.0652   -3.2685    0.6738 C.2     1  LIG1      -0.13999999999999968
     10 C          -0.1266    2.2331   -0.9492 C.2     1  LIG1      -0.23000000000000043
     11 C           0.9277    1.7258    0.0042 C.3     1  LIG1      -0.3099999999999996
     12 C           3.2972   -0.5855    3.0888 C.3     1  LIG1      -0.2999999999999998
     13 C           2.2712    0.4497    2.5281 C.3     1  LIG1      -0.2999999999999998
     14 C          -3.5880    0.0780   -1.5999 C.3     1  LIG1      -0.29000000000000004
     15 C           0.1979   -2.0384   -0.2506 C.3     1  LIG1      -0.29000000000000004
     16 C          -2.3617   -0.5373   -0.9041 C.3     1  LIG1      -0.29000000000000004
     17 C           1.6089   -2.5077    0.1915 C.3     1  LIG1      -0.3099999999999996
     18 C          -2.1933    2.0673   -2.3141 C.3     1  LIG1      -0.3700000000000001
     19 C          -8.5471    2.0379   -0.8374 C.3     1  LIG1       -0.07000000000000028
     20 C           8.3882   -4.2231    0.0896 C.3     1  LIG1      -0.07000000000000028
     21 C           4.1776   -2.9461    2.2893 C.3     1  LIG1      -0.13999999999999968
     22 C           7.3787   -3.0159   -0.0338 C.3     1  LIG1      -0.11000000000000032
     23 C          -1.0185    1.4565   -1.5809 C.2     1  LIG1      0.17999999999999972
     24 C          -3.4951    1.6027   -1.6504 C.3     1  LIG1       0.16000000000000014
     25 C           0.5000    0.3497    0.5255 C.3     1  LIG1      -0.09999999999999964
     26 C           3.0374   -1.9000    2.2997 C.3     1  LIG1      -0.08999999999999986
     27 C           1.4163   -0.3671    1.5420 C.3     1  LIG1      -0.11000000000000032
     28 C           0.2178   -0.5643   -0.6917 C.3     1  LIG1      -0.11000000000000032
     29 C          -7.2488    2.1410    0.0067 C.3     1  LIG1       0.05999999999999961
     30 C          -7.0211    3.5043    0.6743 C.3     1  LIG1       0.1200000000000001
     31 C          -6.6408    4.5768   -0.3546 C.3     1  LIG1       0.08999999999999986
     32 C          -5.4262    4.1050   -1.1920 C.3     1  LIG1       0.08000000000000007
     33 C          -5.6737    2.6794   -1.7561 C.3     1  LIG1       0.33999999999999986
     34 C          -1.0100   -0.0756   -1.5164 C.3     1  LIG1      0.040000000000000036
     35 C           2.4056   -1.4139    0.9593 C.3     1  LIG1      0.11000000000000032
     36 O          -9.6275    2.7689   -0.2802 O.3     1  LIG1      -0.6699999999999999
     37 O          -5.9145    3.4378    1.5936 O.3     1  LIG1      -0.6799999999999997
     38 O          -7.8096    4.7999   -1.1530 O.3     1  LIG1      -0.6699999999999999
     39 O          -4.2356    4.2461   -0.4393 O.3     1  LIG1      -0.6799999999999997
     40 O          -4.5915    2.1348   -2.4286 O.3     1  LIG1      -0.5399999999999991
     41 O          -6.0918    1.7558   -0.7379 O.3     1  LIG1      -0.5299999999999994
     42 H          10.0741   -1.9827   -0.3705 H       1  LIG1       0.15000000000000002
     43 H           9.6083   -0.2871   -0.2003 H       1  LIG1          0.14
     44 H           8.9787   -1.2463   -1.5499 H       1  LIG1       0.15000000000000002
     45 H           7.0304   -5.9520    0.1866 H       1  LIG1          0.14
     46 H           8.6298   -6.2271    0.8848 H       1  LIG1          0.14
     47 H           7.4323   -5.2667    1.7698 H       1  LIG1          0.14
     48 H           9.3865   -3.7363   -1.8060 H       1  LIG1       0.15000000000000002
     49 H           9.7337   -5.3692   -1.2045 H       1  LIG1          0.14
     50 H           8.1576   -5.0042   -1.9245 H       1  LIG1          0.14
     51 H           4.8894   -2.5797    4.3295 H       1  LIG1       0.15000000000000002
     52 H           3.5603   -3.7480    4.2376 H       1  LIG1          0.14
     53 H           5.2045   -4.2181    3.7408 H       1  LIG1          0.14
     54 H          -1.7144   -0.3908   -3.5933 H       1  LIG1       0.16000000000000003
     55 H           0.0403   -0.2692   -3.4277 H       1  LIG1          0.14
     56 H          -0.8083   -1.7434   -2.9196 H       1  LIG1       0.15000000000000002
     57 H           2.9955   -0.2864   -0.8322 H       1  LIG1       0.15000000000000002
     58 H           4.0588   -0.0071    0.5446 H       1  LIG1          0.14
     59 H           4.1545   -1.5225   -0.3427 H       1  LIG1       0.15000000000000002
     60 H           8.3271   -1.7248    1.4224 H       1  LIG1          0.14
     61 H           7.2761   -0.8838    0.2902 H       1  LIG1          0.14
     62 H           5.9691   -1.6581    2.0324 H       1  LIG1          0.13
     63 H           5.5279   -4.1491    0.3181 H       1  LIG1          0.13
     64 H          -0.2070    3.3151   -1.0649 H       1  LIG1          0.12
     65 H           1.9172    1.6816   -0.4774 H       1  LIG1       0.15000000000000002
     66 H           1.0333    2.4363    0.8351 H       1  LIG1          0.14
     67 H           4.3250   -0.2333    2.9474 H       1  LIG1          0.14
     68 H           3.1726   -0.7461    4.1643 H       1  LIG1          0.14
     69 H           2.7887    1.2659    2.0135 H       1  LIG1          0.14
     70 H           1.6650    0.9095    3.3171 H       1  LIG1          0.13
     71 H          -3.6812   -0.2953   -2.6271 H       1  LIG1          0.14
     72 H          -4.5065   -0.2060   -1.0767 H       1  LIG1          0.14
     73 H          -0.1617   -2.6920   -1.0537 H       1  LIG1          0.14
     74 H          -0.5152   -2.1567    0.5767 H       1  LIG1          0.14
     75 H          -2.4304   -1.6320   -0.9448 H       1  LIG1          0.14
     76 H          -2.3800   -0.2610    0.1590 H       1  LIG1          0.14
     77 H           2.1752   -2.8083   -0.6991 H       1  LIG1          0.13
     78 H           1.5081   -3.4103    0.8090 H       1  LIG1          0.13
     79 H          -2.2256    1.7673   -3.3702 H       1  LIG1       0.15000000000000002
     80 H          -2.1563    3.1608   -2.2817 H       1  LIG1          0.14
     81 H          -8.3445    2.3580   -1.8657 H       1  LIG1       0.16000000000000003
     82 H          -8.8521    0.9885   -0.8759 H       1  LIG1       0.16000000000000003
     83 H           9.2198   -3.8776    0.7210 H       1  LIG1          0.13
     84 H           3.7917   -3.8188    1.7422 H       1  LIG1          0.13
     85 H           7.1216   -2.9342   -1.1045 H       1  LIG1          0.13
     86 H          -3.5281    2.0040   -0.6358 H       1  LIG1          0.14
     87 H          -0.4591    0.5184    1.0378 H       1  LIG1          0.12
     88 H           2.2134   -2.4134    2.8198 H       1  LIG1          0.12
     89 H           0.7325   -0.9615    2.1666 H       1  LIG1          0.12
     90 H           1.0715   -0.4534   -1.3740 H       1  LIG1          0.12
     91 H          -7.3176    1.4005    0.8161 H       1  LIG1       0.17000000000000004
     92 H          -7.9296    3.7994    1.2092 H       1  LIG1       0.16000000000000003
     93 H          -6.3523    5.4924    0.1806 H       1  LIG1       0.16000000000000003
     94 H          -5.3143    4.7609   -2.0659 H       1  LIG1       0.16000000000000003
     95 H          -6.4601    2.7742   -2.5176 H       1  LIG1       0.15000000000000002
     96 H          -9.4562    3.6985   -0.5142 H       1  LIG1       0.43000000000000005
     97 H          -5.8118    2.5146    1.8779 H       1  LIG1       0.43999999999999995
     98 H          -7.6505    5.5632   -1.7282 H       1  LIG1       0.44999999999999996
     99 H          -4.4442    3.9069    0.4537 H       1  LIG1       0.43000000000000005
@<TRIPOS>BOND
     1    54     5    1
     2    55     5    1
     3    79    18    1
     4     5    56    1
     5     5    34    1
     6    71    14    1
     7    95    33    1
     8    40    33    1
     9    40    24    1
    10    18    80    1
    11    18    24    1
    12    18    23    1
    13    94    32    1
    14    50     3    1
    15    81    19    1
    16    48     3    1
    17    33    32    1
    18    33    41    1
    19    98    38    1
    20    24    14    1
    21    24    86    1
    22    14    72    1
    23    14    16    1
    24    23    34    1
    25    23    10    2
    26    44     1    1
    27    34    16    1
    28    34    28    1
    29    90    28    1
    30     3    49    1
    31     3    20    1
    32    32    39    1
    33    32    31    1
    34    38    31    1
    35    85    22    1
    36    64    10    1
    37    73    15    1
    38    10    11    1
    39    75    16    1
    40    16    76    1
    41    82    19    1
    42    19    36    1
    43    19    29    1
    44    57     6    1
    45    41    29    1
    46    77    17    1
    47    28    15    1
    48    28    25    1
    49    96    36    1
    50     1    42    1
    51     1    43    1
    52     1     7    1
    53    65    11    1
    54    39    99    1
    55    31    93    1
    56    31    30    1
    57    59     6    1
    58    15    17    1
    59    15    74    1
    60    22    20    1
    61    22     7    1
    62    22     9    1
    63    11    25    1
    64    11    66    1
    65    29    30    1
    66    29    91    1
    67     6    58    1
    68     6    35    1
    69    20    83    1
    70    20     2    1
    71    45     2    1
    72    17    78    1
    73    17    35    1
    74    61     7    1
    75    63     9    1
    76     7    60    1
    77    25    87    1
    78    25    27    1
    79     9     8    2
    80    30    92    1
    81    30    37    1
    82     2    46    1
    83     2    47    1
    84    35    27    1
    85    35    26    1
    86    27    89    1
    87    27    13    1
    88    37    97    1
    89     8    62    1
    90     8    21    1
    91    84    21    1
    92    69    13    1
    93    21    26    1
    94    21     4    1
    95    26    88    1
    96    26    12    1
    97    13    12    1
    98    13    70    1
    99    67    12    1
   100    12    68    1
   101     4    53    1
   102     4    52    1
   103     4    51    1
