@<TRIPOS>MOLECULE
VWFJDQUYCIWHTN-YFVJMOTDSA-K	11083950	-1796.1646578008945
 49 48 0 0 0
SMALL
MULLIKEN NwChem

@<TRIPOS>ATOM
      1 C           7.9567   -1.5548    1.4253 C.3     1  LIG1      -0.5300000000000002
      2 C           5.9305   -3.0431    1.5710 C.3     1  LIG1      -0.5199999999999996
      3 C           3.2782    2.8784    2.9290 C.3     1  LIG1      -0.5300000000000002
      4 C          -1.1483    2.0741    2.4088 C.3     1  LIG1        -0.54
      5 C           5.9599    0.8325    0.8741 C.3     1  LIG1      -0.33000000000000007
      6 C           1.5556    1.8473    0.5988 C.3     1  LIG1      -0.3099999999999996
      7 C           5.6075   -0.6081    1.1146 C.2     1  LIG1      -0.17999999999999972
      8 C           5.3096    1.8100    1.8773 C.3     1  LIG1      -0.3200000000000003
      9 C           3.0351    1.6172    0.7709 C.2     1  LIG1      -0.20000000000000018
     10 C           0.6617    0.7299    1.2202 C.3     1  LIG1      -0.3200000000000003
     11 C          -1.6779    0.6469    0.3778 C.2     1  LIG1        -0.25
     12 C          -3.1531    0.9073    0.2573 C.3     1  LIG1       -0.09999999999999964
     13 C           6.4573   -1.6494    1.3552 C.2     1  LIG1      0.16999999999999993
     14 C           3.8106    2.0461    1.7828 C.2     1  LIG1      0.16999999999999993
     15 C          -0.8025    1.1232    1.2818 C.2     1  LIG1      0.16999999999999993
     16 O          -3.5383   -2.1693   -0.2586 O.3     1  LIG1      -0.8000000000000007
     17 O          -1.6172   -1.4897   -1.8296 O.3     1  LIG1      -0.7799999999999994
     18 O          -3.3896   -3.1912   -2.6398 O.2     1  LIG1      -0.7699999999999996
     19 O          -5.8298    0.5258   -0.9600 O.3     1  LIG1        -0.75
     20 O          -4.8252    1.5865   -3.1362 O.2     1  LIG1      -0.7200000000000006
     21 O          -3.4007    1.4080   -1.0463 O.3     1  LIG1      -0.6199999999999992
     22 O          -4.0449   -0.7312   -2.4024 O.3     1  LIG1      -0.6899999999999995
     23 P          -3.0684   -2.0115   -1.7159 P.3     1  LIG1       0.9600000000000009
     24 P          -4.6742    0.6826   -1.9297 P.3     1  LIG1       1.0299999999999994
     25 H           8.4458   -2.1541    0.6332 H       1  LIG1       0.16000000000000003
     26 H           8.3319   -0.5303    1.3328 H       1  LIG1       0.16000000000000003
     27 H           8.3440   -1.9617    2.3790 H       1  LIG1       0.16000000000000003
     28 H           4.8386   -3.0848    1.5002 H       1  LIG1       0.16000000000000003
     29 H           6.3376   -3.7577    0.8316 H       1  LIG1       0.16000000000000003
     30 H           6.2178   -3.4456    2.5609 H       1  LIG1       0.16000000000000003
     31 H           3.7673    3.8668    2.9666 H       1  LIG1       0.16000000000000003
     32 H           3.4936    2.3923    3.8927 H       1  LIG1       0.16000000000000003
     33 H           2.1989    3.0356    2.8749 H       1  LIG1       0.17000000000000004
     34 H          -2.1907    2.4006    2.3540 H       1  LIG1       0.16000000000000003
     35 H          -0.9936    1.6096    3.3998 H       1  LIG1       0.15000000000000002
     36 H          -0.5157    2.9814    2.4024 H       1  LIG1       0.16000000000000003
     37 H           7.0471    0.9784    0.9211 H       1  LIG1       0.15000000000000002
     38 H           5.6665    1.1447   -0.1434 H       1  LIG1       0.15000000000000002
     39 H           1.2651    2.8129    1.0302 H       1  LIG1       0.15000000000000002
     40 H           1.3108    1.9051   -0.4681 H       1  LIG1          0.14
     41 H           4.5417   -0.8259    1.0954 H       1  LIG1          0.13
     42 H           5.8090    2.7965    1.7856 H       1  LIG1       0.15000000000000002
     43 H           5.5544    1.4613    2.8940 H       1  LIG1          0.14
     44 H           3.4941    0.9921    0.0053 H       1  LIG1          0.13
     45 H           1.0545    0.5142    2.2303 H       1  LIG1          0.13
     46 H           0.7766   -0.1846    0.6277 H       1  LIG1          0.14
     47 H          -1.3513   -0.0574   -0.4023 H       1  LIG1       0.17000000000000004
     48 H          -3.5291    1.6276    1.0123 H       1  LIG1          0.12
     49 H          -3.6610   -0.0554    0.4205 H       1  LIG1       0.15000000000000002
@<TRIPOS>BOND
     1    20    24    2
     2    18    23    2
     3    22    24    1
     4    22    23    1
     5    24    21    1
     6    24    19    1
     7    17    23    1
     8    23    16    1
     9    21    12    1
    10    40     6    1
    11    47    11    1
    12    38     5    1
    13    44     9    1
    14    12    11    1
    15    12    49    1
    16    12    48    1
    17    11    15    2
    18     6     9    1
    19     6    39    1
    20     6    10    1
    21    46    10    1
    22    25     1    1
    23     9    14    2
    24    29     2    1
    25     5    37    1
    26     5     7    1
    27     5     8    1
    28    41     7    1
    29     7    13    2
    30    10    15    1
    31    10    45    1
    32    15     4    1
    33    26     1    1
    34    13     1    1
    35    13     2    1
    36     1    27    1
    37    28     2    1
    38     2    30    1
    39    14     8    1
    40    14     3    1
    41    42     8    1
    42     8    43    1
    43    34     4    1
    44    36     4    1
    45     4    35    1
    46    33     3    1
    47     3    31    1
    48     3    32    1
