@<TRIPOS>MOLECULE
VYFYYTLLBUKUHU-UHFFFAOYSA-O	6045376	-516.980126171638
 23 23 0 0 0
SMALL
MULLIKEN NwChem

@<TRIPOS>ATOM
      1 C          -1.4799    0.4612    0.0323 C.ar    1  LIG1      -0.1900000000000004
      2 C          -0.8751    1.7107   -0.1283 C.ar    1  LIG1      -0.21999999999999975
      3 C          -1.3501   -2.0153    0.5430 C.3     1  LIG1      -0.3600000000000003
      4 C          -1.4942   -2.6320   -0.8563 C.3     1  LIG1      -0.16999999999999993
      5 C           0.6479   -0.4573    0.7114 C.ar    1  LIG1      -0.28000000000000025
      6 C          -0.7295   -0.6358    0.4599 C.ar    1  LIG1      0.08999999999999986
      7 C           0.4839    1.8933    0.1284 C.ar    1  LIG1       0.2999999999999998
      8 C           1.2569    0.7918    0.5701 C.ar    1  LIG1       0.3200000000000003
      9 N          -0.1349   -2.5998   -1.5490 N.4     1  LIG1         -0.71
     10 O           1.1349    3.0704   -0.0042 O.3     1  LIG1      -0.6699999999999999
     11 O           2.5658    1.0321    0.8203 O.3     1  LIG1      -0.6699999999999999
     12 H          -2.5445    0.3557   -0.1602 H       1  LIG1       0.16000000000000003
     13 H          -1.4712    2.5624   -0.4474 H       1  LIG1       0.17000000000000004
     14 H          -0.7576   -2.6809    1.1832 H       1  LIG1       0.18999999999999995
     15 H          -2.3555   -1.9786    0.9770 H       1  LIG1       0.18999999999999995
     16 H          -1.8305   -3.6712   -0.8498 H       1  LIG1       0.21999999999999997
     17 H          -2.1589   -2.0343   -1.4833 H       1  LIG1       0.21999999999999997
     18 H           1.2435   -1.2866    1.0941 H       1  LIG1       0.17000000000000004
     19 H           0.5012   -3.3060   -1.1615 H       1  LIG1      0.44999999999999996
     20 H          -0.1970   -2.7507   -2.5616 H       1  LIG1      0.44999999999999996
     21 H           0.2916   -1.6709   -1.3630 H       1  LIG1      0.43000000000000005
     22 H           0.5128    3.7703   -0.2600 H       1  LIG1       0.44999999999999996
     23 H           2.9745    0.2654    1.2519 H       1  LIG1       0.45999999999999996
@<TRIPOS>BOND
     1    20     9    1
     2     9    21    1
     3     9    19    1
     4     9     4    1
     5    17     4    1
     6     4    16    1
     7     4     3    1
     8    13     2    1
     9    22    10    1
    10    12     1    1
    11     2     1   ar
    12     2     7   ar
    13    10     7    1
    14     1     6   ar
    15     7     8   ar
    16     6     3    1
    17     6     5   ar
    18     3    15    1
    19     3    14    1
    20     8     5   ar
    21     8    11    1
    22     5    18    1
    23    11    23    1
