@<TRIPOS>MOLECULE
VYGQUTWHTHXGQB-FFHKNEKCSA-N	6045377	-1557.6477918238022
 98 98 0 0 0
SMALL
MULLIKEN NwChem

@<TRIPOS>ATOM
      1 C           8.8215    1.1623   -9.7954 C.3     1  LIG1      -0.45999999999999996
      2 C          -3.5119    0.0294    0.3770 C.3     1  LIG1        -0.54
      3 C           0.3887   -1.6237    5.5922 C.3     1  LIG1      -0.5300000000000002
      4 C          -7.5244    2.5456    4.6408 C.3     1  LIG1      -0.5300000000000002
      5 C          -8.3227   -1.6100    1.9983 C.3     1  LIG1      -0.46999999999999975
      6 C          -8.7848    0.3828    0.5080 C.3     1  LIG1      -0.46999999999999975
      7 C           9.2336    0.4349   -8.5103 C.3     1  LIG1      -0.2599999999999998
      8 C           9.1845    1.3165   -7.2507 C.3     1  LIG1      -0.2599999999999998
      9 C           7.8043    1.9126   -6.9187 C.3     1  LIG1      -0.2699999999999996
     10 C           6.6694    0.8843   -6.7724 C.3     1  LIG1      -0.2699999999999996
     11 C           6.9228   -0.2213   -5.7334 C.3     1  LIG1      -0.2699999999999996
     12 C           7.1970    0.2796   -4.3049 C.3     1  LIG1      -0.2699999999999996
     13 C           6.0778    1.1340   -3.6833 C.3     1  LIG1      -0.2699999999999996
     14 C           4.6906    0.4650   -3.6463 C.3     1  LIG1      -0.2699999999999996
     15 C           4.6532   -0.9132   -2.9616 C.3     1  LIG1      -0.2699999999999996
     16 C           5.1309   -0.9291   -1.4995 C.3     1  LIG1      -0.2699999999999996
     17 C           4.2874   -0.0872   -0.5246 C.3     1  LIG1      -0.2699999999999996
     18 C           2.8038   -0.4861   -0.4267 C.3     1  LIG1      -0.2599999999999998
     19 C           2.5480   -1.9713   -0.1058 C.3     1  LIG1      -0.28000000000000025
     20 C          -2.0289   -0.2979    3.0559 C.2     1  LIG1      -0.1299999999999999
     21 C         -10.7073    1.3057    2.8249 C.3     1  LIG1      -0.28000000000000025
     22 C          -3.4588   -0.1984    2.9004 C.2     1  LIG1      -0.21999999999999975
     23 C          -1.4245   -0.5377    4.2452 C.2     1  LIG1      -0.21999999999999975
     24 C          -9.8238    1.9111    3.9118 C.3     1  LIG1      -0.33000000000000007
     25 C           3.2878   -2.5513    1.1220 C.3     1  LIG1       -0.34999999999999964
     26 C          -5.6190    0.0921    1.7339 C.2     1  LIG1      -0.20000000000000018
     27 C          -6.3740    0.6128    2.7314 C.2     1  LIG1      -0.20000000000000018
     28 C           0.9183    0.0126    3.7346 C.2     1  LIG1      -0.20999999999999996
     29 C         -10.2112   -0.1022    2.5201 C.3     1  LIG1      -0.28000000000000025
     30 C           2.4086   -0.1036    3.7979 C.3     1  LIG1       -0.11000000000000032
     31 C          -4.1582   -0.0268    1.7435 C.2     1  LIG1      0.1299999999999999
     32 C           0.0199   -0.6692    4.4776 C.2     1  LIG1      0.17999999999999972
     33 C          -8.3418    1.6524    3.7317 C.2     1  LIG1      0.07000000000000028
     34 C          -7.8318    0.7516    2.8424 C.2     1  LIG1      0.11000000000000032
     35 C           2.7833   -2.0510    2.4606 C.2     1  LIG1       0.6200000000000001
     36 C          -8.7625   -0.1270    1.9699 C.3     1  LIG1      0.040000000000000036
     37 O           2.3035   -2.7519    3.3257 O.2     1  LIG1      -0.5199999999999996
     38 O           2.9435   -0.7109    2.5792 O.3     1  LIG1      -0.46000000000000085
     39 H           7.7791    1.4986   -9.7523 H       1  LIG1       0.15000000000000002
     40 H           8.9217    0.5110  -10.6712 H       1  LIG1          0.14
     41 H           9.4484    2.0472   -9.9629 H       1  LIG1          0.14
     42 H          -4.0209   -0.6575   -0.3117 H       1  LIG1       0.17000000000000004
     43 H          -3.6042    1.0334   -0.0577 H       1  LIG1       0.17000000000000004
     44 H          -2.4539   -0.2394    0.3877 H       1  LIG1       0.17000000000000004
     45 H          -0.2459   -1.4466    6.4703 H       1  LIG1       0.16000000000000003
     46 H           0.2254   -2.6576    5.2663 H       1  LIG1       0.17000000000000004
     47 H           1.4299   -1.5454    5.9063 H       1  LIG1       0.17000000000000004
     48 H          -7.4707    3.5635    4.2269 H       1  LIG1       0.17000000000000004
     49 H          -8.0190    2.6329    5.6173 H       1  LIG1       0.16000000000000003
     50 H          -6.4998    2.2141    4.8198 H       1  LIG1       0.17000000000000004
     51 H          -9.0784   -2.2252    1.4944 H       1  LIG1          0.14
     52 H          -7.3666   -1.7872    1.5042 H       1  LIG1       0.15000000000000002
     53 H          -8.2318   -1.9650    3.0315 H       1  LIG1          0.14
     54 H          -9.1547    1.4111    0.4521 H       1  LIG1       0.15000000000000002
     55 H          -7.7945    0.3731    0.0474 H       1  LIG1       0.16000000000000003
     56 H          -9.4421   -0.2500   -0.1014 H       1  LIG1          0.14
     57 H           8.5957   -0.4479   -8.3687 H       1  LIG1          0.14
     58 H          10.2562    0.0509   -8.6250 H       1  LIG1          0.13
     59 H           9.5404    0.7265   -6.3953 H       1  LIG1          0.14
     60 H           9.8996    2.1434   -7.3682 H       1  LIG1          0.13
     61 H           7.8927    2.4947   -5.9920 H       1  LIG1          0.13
     62 H           7.5195    2.6341   -7.6958 H       1  LIG1          0.13
     63 H           5.7443    1.4189   -6.5203 H       1  LIG1          0.13
     64 H           6.4826    0.4110   -7.7459 H       1  LIG1          0.13
     65 H           6.0578   -0.8972   -5.7271 H       1  LIG1          0.14
     66 H           7.7746   -0.8352   -6.0565 H       1  LIG1          0.13
     67 H           7.3923   -0.5895   -3.6627 H       1  LIG1          0.13
     68 H           8.1263    0.8643   -4.2964 H       1  LIG1          0.14
     69 H           6.3783    1.4091   -2.6642 H       1  LIG1          0.13
     70 H           5.9944    2.0818   -4.2327 H       1  LIG1          0.13
     71 H           3.9883    1.1441   -3.1432 H       1  LIG1          0.13
     72 H           4.3140    0.3542   -4.6717 H       1  LIG1          0.13
     73 H           3.6289   -1.3048   -3.0158 H       1  LIG1          0.14
     74 H           5.2677   -1.6183   -3.5361 H       1  LIG1          0.14
     75 H           5.1528   -1.9722   -1.1574 H       1  LIG1          0.13
     76 H           6.1719   -0.5826   -1.4511 H       1  LIG1          0.14
     77 H           4.7354   -0.1450    0.4759 H       1  LIG1          0.13
     78 H           4.3444    0.9725   -0.8100 H       1  LIG1          0.14
     79 H           2.3291    0.1365    0.3381 H       1  LIG1          0.14
     80 H           2.2957   -0.2577   -1.3737 H       1  LIG1          0.14
     81 H           1.4692   -2.1294    0.0265 H       1  LIG1       0.15000000000000002
     82 H           2.8392   -2.5820   -0.9700 H       1  LIG1       0.16000000000000003
     83 H          -1.4037   -0.1981    2.1712 H       1  LIG1       0.15000000000000002
     84 H         -10.6705    1.9267    1.9219 H       1  LIG1          0.14
     85 H         -11.7545    1.2893    3.1507 H       1  LIG1          0.14
     86 H          -4.0338   -0.3010    3.8204 H       1  LIG1          0.14
     87 H          -2.0619   -0.7017    5.1154 H       1  LIG1       0.15000000000000002
     88 H          -9.9866    2.9968    3.9842 H       1  LIG1       0.15000000000000002
     89 H         -10.1207    1.5118    4.8963 H       1  LIG1       0.16000000000000003
     90 H           3.1774   -3.6385    1.1425 H       1  LIG1       0.17000000000000004
     91 H           4.3586   -2.3280    1.0536 H       1  LIG1       0.18999999999999995
     92 H          -6.0905   -0.2365    0.8126 H       1  LIG1       0.15000000000000002
     93 H          -5.8092    1.0190    3.5647 H       1  LIG1          0.14
     94 H           0.5504    0.7043    2.9782 H       1  LIG1       0.15000000000000002
     95 H         -10.2499   -0.6956    3.4450 H       1  LIG1          0.13
     96 H         -10.8682   -0.6037    1.7981 H       1  LIG1          0.13
     97 H           2.7575   -0.6830    4.6535 H       1  LIG1       0.18000000000000005
     98 H           2.8855    0.8799    3.8096 H       1  LIG1       0.18000000000000005
@<TRIPOS>BOND
     1    40     1    1
     2    41     1    1
     3     1    39    1
     4     1     7    1
     5    58     7    1
     6     7    57    1
     7     7     8    1
     8    64    10    1
     9    62     9    1
    10    60     8    1
    11     8     9    1
    12     8    59    1
    13     9    10    1
    14     9    61    1
    15    10    63    1
    16    10    11    1
    17    66    11    1
    18    11    65    1
    19    11    12    1
    20    72    14    1
    21    12    68    1
    22    12    13    1
    23    12    67    1
    24    70    13    1
    25    13    14    1
    26    13    69    1
    27    14    71    1
    28    14    15    1
    29    74    15    1
    30    73    15    1
    31    15    16    1
    32    16    76    1
    33    16    75    1
    34    16    17    1
    35    80    18    1
    36    82    19    1
    37    78    17    1
    38    17    18    1
    39    17    77    1
    40    18    19    1
    41    18    79    1
    42    42     2    1
    43    19    81    1
    44    19    25    1
    45    56     6    1
    46    43     2    1
    47    55     6    1
    48     2    44    1
    49     2    31    1
    50    54     6    1
    51     6    36    1
    52    92    26    1
    53    91    25    1
    54    25    90    1
    55    25    35    1
    56    51     5    1
    57    52     5    1
    58    26    31    1
    59    26    27    2
    60    31    22    2
    61    96    29    1
    62    84    21    1
    63    36     5    1
    64    36    29    1
    65    36    34    1
    66     5    53    1
    67    83    20    1
    68    35    38    1
    69    35    37    2
    70    29    21    1
    71    29    95    1
    72    38    30    1
    73    27    34    1
    74    27    93    1
    75    21    85    1
    76    21    24    1
    77    34    33    2
    78    22    20    1
    79    22    86    1
    80    94    28    1
    81    20    23    2
    82    33    24    1
    83    33     4    1
    84    28    30    1
    85    28    32    2
    86    30    98    1
    87    30    97    1
    88    24    88    1
    89    24    89    1
    90    48     4    1
    91    23    32    1
    92    23    87    1
    93    32     3    1
    94     4    50    1
    95     4    49    1
    96    46     3    1
    97     3    47    1
    98     3    45    1
