@<TRIPOS>MOLECULE
VYOIELONWKIZJS-YFKPBYRVSA-O	6045378	-473.8550333018358
 20 20 0 0 0
SMALL
MULLIKEN NwChem

@<TRIPOS>ATOM
      1 CB          0.4975    1.1000    0.8527 C.3     1  HIS1      -0.34999999999999964
      2 CD2        -0.0767   -1.3313   -0.0268 C.ar    1  HIS1       -0.1200000000000001
      3 C           1.3554    1.1814   -1.5861 C.2     1  HIS1       0.28000000000000025
      4 CE1        -0.7867   -2.1898    1.7967 C.ar    1  HIS1       0.20000000000000018
      5 CA          0.3474    1.7142   -0.5538 C.3     1  HIS1      -0.09999999999999964
      6 CG          0.0197   -0.3211    0.9180 C.ar    1  HIS1       0.28000000000000025
      7 N          -1.0170    1.4388   -1.1467 N.4     1  HIS1       -0.7300000000000004
      8 NE2        -0.5807   -2.4789    0.5320 N.ar    1  HIS1      -0.4900000000000002
      9 ND1        -0.4527   -0.8946    2.0838 N.ar    1  HIS1      -0.5899999999999999
     10 O           0.9865    0.8147   -2.6776 O.2     1  HIS1      -0.41999999999999993
     11 HB1        -0.0516    1.7216    1.5709 H       1  HIS1       0.21999999999999997
     12 HB2         1.5590    1.1955    1.1231 H       1  HIS1       0.22999999999999998
     13 HD2         0.2206   -1.3113   -1.0687 H       1  HIS1       0.18000000000000005
     14 H           2.4134    1.1772   -1.2731 H       1  HIS1       0.20999999999999996
     15 HE1        -1.1777   -2.8650    2.5462 H       1  HIS1       0.19999999999999996
     16 HA          0.4792    2.8009   -0.5003 H       1  HIS1          0.27
     17 H1         -1.7063    2.1755   -0.9719 H       1  HIS1      0.45999999999999996
     18 H2         -0.8843    1.2979   -2.1681 H       1  HIS1      0.43999999999999995
     19 H3         -1.3605    0.5395   -0.7554 H       1  HIS1      0.43000000000000005
     20 HD1        -0.4987   -0.4556    2.9945 H       1  HIS1           0.39
@<TRIPOS>BOND
     1    10     3    2
     2    18     7    1
     3     3    14    1
     4     3     5    1
     5     7    17    1
     6     7    19    1
     7     7     5    1
     8    13     2    1
     9     5    16    1
    10     5     1    1
    11     2     8   ar
    12     2     6   ar
    13     8     4   ar
    14     1     6    1
    15     1    12    1
    16     1    11    1
    17     6     9   ar
    18     4     9   ar
    19     4    15    1
    20     9    20    1
