@<TRIPOS>MOLECULE
VYQDALBEQRZDPL-DHUJRADRSA-N	6045379	-1828.587435197326
 114 113 0 0 0
SMALL
MULLIKEN NwChem

@<TRIPOS>ATOM
      1 C          -9.2504   -4.2949   -1.8836 C.3     1  LIG1      -0.45999999999999996
      2 C          -8.1440    1.7030    1.5735 C.3     1  LIG1      -0.45999999999999996
      3 C          -8.3523   -3.0698   -2.0818 C.3     1  LIG1      -0.2599999999999998
      4 C          -7.1920    0.9534    0.6341 C.3     1  LIG1      -0.2599999999999998
      5 C          -7.6268   -2.6168   -0.8044 C.3     1  LIG1      -0.2699999999999996
      6 C          -6.4667    1.8536   -0.3799 C.3     1  LIG1      -0.2599999999999998
      7 C          -6.6796   -3.6560   -0.1816 C.3     1  LIG1      -0.2699999999999996
      8 C          -5.6211    2.9830    0.2346 C.3     1  LIG1      -0.2699999999999996
      9 C          -5.5325   -4.1231   -1.0957 C.3     1  LIG1      -0.2699999999999996
     10 C          -4.5500    2.5264    1.2399 C.3     1  LIG1      -0.2699999999999996
     11 C          -4.6373   -2.9984   -1.6463 C.3     1  LIG1      -0.2699999999999996
     12 C          -3.5462    1.4972    0.6953 C.3     1  LIG1      -0.28000000000000025
     13 C          -4.0140   -2.0843   -0.5778 C.3     1  LIG1      -0.28000000000000025
     14 C          -2.7750    1.9421   -0.5582 C.3     1  LIG1      -0.28000000000000025
     15 C          -3.1628   -2.8042    0.4830 C.3     1  LIG1      -0.2699999999999996
     16 C          -1.9757    3.2474   -0.4004 C.3     1  LIG1      -0.2699999999999996
     17 C          -1.9917   -3.6341   -0.0704 C.3     1  LIG1      -0.2699999999999996
     18 C          -0.9763   -2.8455   -0.9154 C.3     1  LIG1      -0.2699999999999996
     19 C          -0.9499    3.2448    0.7464 C.3     1  LIG1      -0.2699999999999996
     20 C          -0.3321   -1.6462   -0.1975 C.3     1  LIG1      -0.28000000000000025
     21 C           0.3862   -1.9839    1.1209 C.3     1  LIG1      -0.28000000000000025
     22 C           0.0803    2.1033    0.6888 C.3     1  LIG1      -0.28000000000000025
     23 C           1.4938   -3.0477    1.0093 C.3     1  LIG1      -0.2699999999999996
     24 C           0.8923    2.0330   -0.6146 C.3     1  LIG1      -0.29000000000000004
     25 C           2.6174   -2.7233    0.0065 C.3     1  LIG1      -0.28000000000000025
     26 C           1.7405    3.2797   -0.9196 C.3     1  LIG1      -0.2699999999999996
     27 C           3.3453   -1.3901    0.2461 C.3     1  LIG1      -0.29000000000000004
     28 C           2.7633    3.6565    0.1658 C.3     1  LIG1      -0.2599999999999998
     29 C           4.1362   -1.3200    1.5639 C.3     1  LIG1      -0.2999999999999998
     30 C           3.6925    2.5147    0.6103 C.3     1  LIG1      -0.29000000000000004
     31 C           5.4704   -2.1070    1.5521 C.3     1  LIG1       -0.3600000000000003
     32 C           4.4578    1.8023   -0.5263 C.3     1  LIG1       -0.40000000000000036
     33 C           7.1555    1.8979    1.1870 C.3     1  LIG1       -0.05999999999999961
     34 C           7.5171    0.1004   -0.6514 C.3     1  LIG1       -0.08000000000000007
     35 C           7.4948    1.5942   -0.2833 C.3     1  LIG1       0.05999999999999961
     36 C           6.6642   -1.2951    1.0952 C.2     1  LIG1       0.6299999999999999
     37 C           5.4393    2.7015   -1.2446 C.2     1  LIG1       0.6100000000000003
     38 O           6.8671    3.2675    1.4046 O.3     1  LIG1      -0.6500000000000004
     39 O           7.6990   -1.1701    1.7122 O.2     1  LIG1      -0.5199999999999996
     40 O           5.0899    3.6464   -1.9116 O.2     1  LIG1      -0.5099999999999998
     41 O           6.4402   -0.6928   -0.1091 O.3     1  LIG1      -0.46000000000000085
     42 O           6.7834    2.4209   -1.2249 O.3     1  LIG1      -0.4900000000000002
     43 H          -8.6686   -5.1868   -1.6241 H       1  LIG1       0.15000000000000002
     44 H          -9.8172   -4.5225   -2.7931 H       1  LIG1          0.14
     45 H          -9.9722   -4.1238   -1.0747 H       1  LIG1          0.14
     46 H          -8.8782    2.2879    1.0061 H       1  LIG1          0.14
     47 H          -8.6952    1.0035    2.2128 H       1  LIG1          0.14
     48 H          -7.6055    2.3953    2.2298 H       1  LIG1       0.15000000000000002
     49 H          -7.6190   -3.2756   -2.8718 H       1  LIG1          0.14
     50 H          -8.9617   -2.2333   -2.4489 H       1  LIG1          0.13
     51 H          -7.7597    0.1954    0.0812 H       1  LIG1          0.14
     52 H          -6.4552    0.3970    1.2304 H       1  LIG1          0.14
     53 H          -7.0641   -1.7008   -1.0244 H       1  LIG1       0.15000000000000002
     54 H          -8.3776   -2.3359   -0.0521 H       1  LIG1          0.13
     55 H          -7.2133    2.3057   -1.0481 H       1  LIG1          0.13
     56 H          -5.8312    1.2243   -1.0185 H       1  LIG1          0.14
     57 H          -6.2610   -3.2331    0.7414 H       1  LIG1          0.14
     58 H          -7.2577   -4.5348    0.1313 H       1  LIG1          0.13
     59 H          -6.2842    3.6998    0.7360 H       1  LIG1          0.13
     60 H          -5.1430    3.5441   -0.5794 H       1  LIG1          0.14
     61 H          -4.9159   -4.8412   -0.5389 H       1  LIG1          0.14
     62 H          -5.9466   -4.6838   -1.9442 H       1  LIG1          0.13
     63 H          -5.0408    2.1005    2.1257 H       1  LIG1          0.13
     64 H          -4.0078    3.4116    1.5974 H       1  LIG1          0.13
     65 H          -3.8405   -3.4508   -2.2520 H       1  LIG1          0.14
     66 H          -5.2186   -2.3758   -2.3392 H       1  LIG1          0.14
     67 H          -4.0728    0.5637    0.4639 H       1  LIG1       0.15000000000000002
     68 H          -2.8335    1.2457    1.4919 H       1  LIG1          0.14
     69 H          -3.4060   -1.3194   -1.0795 H       1  LIG1          0.14
     70 H          -4.8139   -1.5353   -0.0636 H       1  LIG1       0.15000000000000002
     71 H          -3.4756    2.0618   -1.3952 H       1  LIG1          0.13
     72 H          -2.0962    1.1305   -0.8532 H       1  LIG1          0.14
     73 H          -2.7794   -2.0547    1.1884 H       1  LIG1          0.14
     74 H          -3.8074   -3.4669    1.0756 H       1  LIG1          0.14
     75 H          -2.6698    4.0841   -0.2459 H       1  LIG1          0.13
     76 H          -1.4632    3.4598   -1.3475 H       1  LIG1          0.13
     77 H          -1.4726   -4.1082    0.7732 H       1  LIG1          0.14
     78 H          -2.3849   -4.4601   -0.6775 H       1  LIG1          0.13
     79 H          -0.1927   -3.5363   -1.2533 H       1  LIG1          0.14
     80 H          -1.4655   -2.4820   -1.8289 H       1  LIG1          0.13
     81 H          -1.4774    3.1893    1.7081 H       1  LIG1          0.13
     82 H          -0.4259    4.2095    0.7504 H       1  LIG1          0.13
     83 H           0.3719   -1.1578   -0.8844 H       1  LIG1          0.14
     84 H          -1.1050   -0.8960    0.0121 H       1  LIG1       0.15000000000000002
     85 H           0.8047   -1.0576    1.5367 H       1  LIG1          0.14
     86 H          -0.3508   -2.3286    1.8581 H       1  LIG1          0.13
     87 H          -0.4312    1.1437    0.8347 H       1  LIG1       0.15000000000000002
     88 H           0.7650    2.2075    1.5410 H       1  LIG1          0.13
     89 H           1.9240   -3.2084    2.0071 H       1  LIG1          0.13
     90 H           1.0464   -4.0094    0.7263 H       1  LIG1          0.14
     91 H           0.2145    1.8501   -1.4585 H       1  LIG1          0.14
     92 H           1.5426    1.1496   -0.5705 H       1  LIG1       0.15000000000000002
     93 H           3.3440   -3.5481    0.0157 H       1  LIG1          0.14
     94 H           2.2018   -2.7096   -1.0090 H       1  LIG1          0.14
     95 H           1.0793    4.1403   -1.0856 H       1  LIG1          0.14
     96 H           2.2736    3.1316   -1.8666 H       1  LIG1          0.13
     97 H           4.0263   -1.1987   -0.5894 H       1  LIG1          0.14
     98 H           2.6124   -0.5756    0.2342 H       1  LIG1       0.17000000000000004
     99 H           2.2400    4.0263    1.0581 H       1  LIG1          0.14
    100 H           3.3708    4.4870   -0.2076 H       1  LIG1          0.14
    101 H           4.3385   -0.2730    1.8215 H       1  LIG1       0.17000000000000004
    102 H           3.5191   -1.7066    2.3822 H       1  LIG1       0.16000000000000003
    103 H           3.1066    1.7457    1.1302 H       1  LIG1       0.16000000000000003
    104 H           4.4149    2.9050    1.3346 H       1  LIG1       0.16000000000000003
    105 H           5.7266   -2.4727    2.5492 H       1  LIG1       0.18000000000000005
    106 H           5.3833   -2.9827    0.8966 H       1  LIG1       0.19999999999999996
    107 H           3.7513    1.4728   -1.2956 H       1  LIG1       0.18999999999999995
    108 H           4.9408    0.9069   -0.1492 H       1  LIG1       0.19999999999999996
    109 H           6.2650    1.3580    1.5123 H       1  LIG1       0.18000000000000005
    110 H           7.9903    1.5363    1.8040 H       1  LIG1       0.17000000000000004
    111 H           8.4635   -0.3313   -0.3198 H       1  LIG1       0.18999999999999995
    112 H           7.4272    0.0125   -1.7359 H       1  LIG1       0.18999999999999995
    113 H           8.5242    1.9333   -0.4580 H       1  LIG1       0.19999999999999996
    114 H           7.5039    3.8059    0.9121 H       1  LIG1       0.43000000000000005
@<TRIPOS>BOND
     1    49     3    1
     2    44     1    1
     3    50     3    1
     4    66    11    1
     5    65    11    1
     6     3     1    1
     7     3     5    1
     8    62     9    1
     9    40    37    2
    10     1    43    1
    11     1    45    1
    12    96    26    1
    13    80    18    1
    14   112    34    1
    15    11     9    1
    16    11    13    1
    17    91    24    1
    18    71    14    1
    19    76    16    1
    20   107    32    1
    21    79    18    1
    22    37    42    1
    23    37    32    1
    24    42    35    1
    25     9    61    1
    26     9     7    1
    27    95    26    1
    28    69    13    1
    29    55     6    1
    30    53     5    1
    31    56     6    1
    32    94    25    1
    33    26    24    1
    34    26    28    1
    35    18    20    1
    36    18    17    1
    37    83    20    1
    38    72    14    1
    39     5     7    1
    40     5    54    1
    41    78    17    1
    42    34   111    1
    43    34    35    1
    44    34    41    1
    45    24    92    1
    46    24    22    1
    47    97    27    1
    48    60     8    1
    49    13    70    1
    50    13    15    1
    51    14    16    1
    52    14    12    1
    53    32   108    1
    54    32    30    1
    55   113    35    1
    56    16    75    1
    57    16    19    1
    58     6     8    1
    59     6     4    1
    60    35    33    1
    61   100    28    1
    62    20    84    1
    63    20    21    1
    64     7    58    1
    65     7    57    1
    66    41    36    1
    67    17    15    1
    68    17    77    1
    69    25    93    1
    70    25    27    1
    71    25    23    1
    72    51     4    1
    73    28    30    1
    74    28    99    1
    75    98    27    1
    76     8    59    1
    77     8    10    1
    78    27    29    1
    79    67    12    1
    80    15    74    1
    81    15    73    1
    82    30   103    1
    83    30   104    1
    84     4    52    1
    85     4     2    1
    86    22    19    1
    87    22    87    1
    88    22    88    1
    89    12    10    1
    90    12    68    1
    91    90    23    1
    92    19    82    1
    93    19    81    1
    94   106    31    1
    95   114    38    1
    96    46     2    1
    97    23    21    1
    98    23    89    1
    99    36    31    1
   100    36    39    2
   101    21    85    1
   102    21    86    1
   103    33    38    1
   104    33   109    1
   105    33   110    1
   106    10    64    1
   107    10    63    1
   108    31    29    1
   109    31   105    1
   110    29   101    1
   111    29   102    1
   112     2    47    1
   113     2    48    1
