@<TRIPOS>MOLECULE
VYZAHLCBVHPDDF-UHFFFAOYSA-N	6045380	-1100.7625323544594
 16 16 0 0 0
SMALL
MULLIKEN NwChem

@<TRIPOS>ATOM
      1 C          -2.0009    0.0769    0.0425 C.ar    1  LIG1      -0.11000000000000032
      2 C          -1.3803    1.3184    0.1021 C.ar    1  LIG1      -0.15000000000000036
      3 C           0.1755   -0.9999   -0.0379 C.ar    1  LIG1       -0.13999999999999968
      4 C          -1.2100   -1.0683   -0.0265 C.ar    1  LIG1       0.29000000000000004
      5 C           0.0160    1.4252    0.0707 C.ar    1  LIG1       -0.05999999999999961
      6 C           0.7840    0.2511   -0.0067 C.ar    1  LIG1       0.2699999999999996
      7 CL          0.7078    3.0118    0.2004 Cl      1  LIG1      0.05999999999999872
      8 N          -1.8579   -2.3915   -0.0809 N.pl3   1  LIG1       0.41000000000000014
      9 N           2.2603    0.2567   -0.0675 N.pl3   1  LIG1       0.3799999999999999
     10 O          -1.1280   -3.3774   -0.1486 O.2     1  LIG1      -0.41999999999999993
     11 O          -3.0867   -2.4176   -0.0551 O.2     1  LIG1      -0.41000000000000014
     12 O           2.8019    1.1508   -0.7065 O.2     1  LIG1      -0.39000000000000057
     13 O           2.8345   -0.6662    0.5061 O.2     1  LIG1      -0.39000000000000057
     14 H          -3.0799   -0.0147    0.0567 H       1  LIG1       0.21999999999999997
     15 H          -1.9720    2.2237    0.1765 H       1  LIG1       0.21999999999999997
     16 H           0.7771   -1.8988   -0.0720 H       1  LIG1       0.22999999999999998
@<TRIPOS>BOND
     1    12     9    2
     2    10     8    2
     3     8    11    2
     4     8     4    1
     5    16     3    1
     6     9     6    1
     7     9    13    2
     8     3     4   ar
     9     3     6   ar
    10     4     1   ar
    11     6     5   ar
    12     1    14    1
    13     1     2   ar
    14     5     2   ar
    15     5     7    1
    16     2    15    1
