@<TRIPOS>MOLECULE
VZCYOOQTPOCHFL-OWOJBTEDSA-L	6045381	-454.76598776716764
 10 9 0 0 0
SMALL
MULLIKEN NwChem

@<TRIPOS>ATOM
      1 C           0.2729   -0.4320    0.4347 C.2     1  LIG1       -0.20000000000000018
      2 C          -0.2727    0.4331   -0.4344 C.2     1  LIG1       -0.20000000000000018
      3 C          -0.4849   -1.3762    1.3824 C.2     1  LIG1       0.4900000000000002
      4 C           0.4846    1.3765   -1.3833 C.2     1  LIG1       0.4900000000000002
      5 O           0.2556   -2.1060    2.1116 O.co2   1  LIG1      -0.6999999999999993
      6 O          -1.7493   -1.3495    1.3587 O.co2   1  LIG1      -0.6899999999999995
      7 O          -0.2564    2.1016   -2.1167 O.co2   1  LIG1      -0.6999999999999993
      8 O           1.7490    1.3538   -1.3564 O.co2   1  LIG1      -0.6899999999999995
      9 H           1.3625   -0.4827    0.4856 H       1  LIG1       0.08999999999999997
     10 H          -1.3624    0.4837   -0.4847 H       1  LIG1       0.08999999999999997
@<TRIPOS>BOND
     1     7     4   ar
     2     4     8   ar
     3     4     2    1
     4    10     2    1
     5     2     1    2
     6     1     9    1
     7     1     3    1
     8     6     3   ar
     9     3     5   ar
