@<TRIPOS>MOLECULE
VZGSJJJQZPTKGR-VXGBXAGGSA-N	6045382	-1597.0314889066908
 33 34 0 0 0
SMALL
MULLIKEN NwChem

@<TRIPOS>ATOM
      1 C           1.7525   -0.5396   -3.3927 C.ar    1  LIG1      -0.15000000000000036
      2 C           0.4617   -0.0053   -3.4436 C.ar    1  LIG1      -0.15000000000000036
      3 C           2.0517   -1.5358   -2.4601 C.ar    1  LIG1      -0.15000000000000036
      4 C          -0.5234   -0.4684   -2.5698 C.ar    1  LIG1      -0.1900000000000004
      5 C           1.0650   -1.9959   -1.5864 C.ar    1  LIG1      -0.1900000000000004
      6 C          -1.2882   -1.9298   -0.6516 C.3     1  LIG1       -0.3600000000000003
      7 C           1.6264    1.5424   -0.1165 C.3     1  LIG1       -0.040000000000000036
      8 C          -0.2341   -1.4724   -1.6344 C.ar    1  LIG1      0.1299999999999999
      9 C           0.0329   -1.0981    1.3241 C.2     1  LIG1       0.5800000000000001
     10 C          -0.8641    1.2405    0.2698 C.2     1  LIG1       0.5499999999999998
     11 C          -1.3227   -1.0168    0.6222 C.3     1  LIG1       -0.08999999999999986
     12 C           0.5319    1.1406    0.8869 C.3     1  LIG1       -0.07000000000000028
     13 N          -1.7171    0.2962    0.2146 N.2     1  LIG1      -0.46999999999999975
     14 N           0.8845   -0.1588    1.3992 N.2     1  LIG1      -0.4900000000000002
     15 O           1.4119    2.9023   -0.5410 O.3     1  LIG1      -0.6600000000000001
     16 O           0.3945   -2.3085    1.8034 O.2     1  LIG1      -0.6199999999999992
     17 O          -1.2158    2.4380   -0.2342 O.2     1  LIG1      -0.6400000000000006
     18 S          -2.6420   -1.7652    1.7389 S.3     1  LIG1      -0.120000000000001
     19 S           0.5969    2.2316    2.4214 S.3     1  LIG1      -0.10999999999999943
     20 H           2.5185   -0.1854   -4.0776 H       1  LIG1       0.16000000000000003
     21 H           0.2184    0.7678   -4.1679 H       1  LIG1       0.16000000000000003
     22 H           3.0532   -1.9540   -2.4100 H       1  LIG1       0.16000000000000003
     23 H          -1.5213   -0.0413   -2.5962 H       1  LIG1       0.16000000000000003
     24 H           1.3066   -2.7556   -0.8476 H       1  LIG1       0.16000000000000003
     25 H          -2.2842   -1.8750   -1.1004 H       1  LIG1       0.19999999999999996
     26 H          -1.1067   -2.9676   -0.3527 H       1  LIG1       0.18999999999999995
     27 H           2.5980    1.4392    0.3769 H       1  LIG1       0.18000000000000005
     28 H           1.5744    0.8564   -0.9698 H       1  LIG1       0.18999999999999995
     29 H           1.7605    2.9958   -1.4399 H       1  LIG1       0.45999999999999996
     30 H          -0.4226   -2.8249    1.9463 H       1  LIG1       0.45999999999999996
     31 H          -0.3873    2.9434   -0.3968 H       1  LIG1       0.45999999999999996
     32 H          -2.5442   -0.8171    2.6946 H       1  LIG1       0.17000000000000004
     33 H           0.2940    3.3961    1.8093 H       1  LIG1       0.15000000000000002
@<TRIPOS>BOND
     1    21     2    1
     2    20     1    1
     3     2     1   ar
     4     2     4   ar
     5     1     3   ar
     6    23     4    1
     7     4     8   ar
     8     3    22    1
     9     3     5   ar
    10     8     5   ar
    11     8     6    1
    12     5    24    1
    13    29    15    1
    14    25     6    1
    15    28     7    1
    16     6    26    1
    17     6    11    1
    18    15     7    1
    19    31    17    1
    20    17    10    1
    21     7    27    1
    22     7    12    1
    23    13    10    2
    24    13    11    1
    25    10    12    1
    26    11     9    1
    27    11    18    1
    28    12    14    1
    29    12    19    1
    30     9    14    2
    31     9    16    1
    32    18    32    1
    33    16    30    1
    34    33    19    1
