@<TRIPOS>MOLECULE
VZXPDPZARILFQX-BYPYZUCNSA-N	6045383	-551.5183727259915
 19 18 0 0 0
SMALL
MULLIKEN NwChem

@<TRIPOS>ATOM
      1 C1          0.5827    2.8776    1.0056 C.3     1  <1>              -0.54
      2 C2         -0.0819    0.1631   -1.4161 C.3     1  <1>        -0.05999999999999961
      3 C3         -0.1994    1.7734    0.3406 C.2     1  <1>        0.6299999999999999
      4 C4          0.4733   -1.1794   -0.8969 C.3     1  <1>        -0.07000000000000028
      5 C5          0.0460   -1.4297    0.5517 C.2     1  <1>        0.5800000000000001
      6 N1          0.0161   -2.2254   -1.8058 N.3     1  <1>         -0.75
      7 O1         -1.2762    1.3542    0.7022 O.2     1  <1>       -0.5199999999999996
      8 O2         -0.8727   -2.1472    0.8771 O.2     1  <1>       -0.5099999999999998
      9 O3          0.8170   -0.7598    1.4422 O.3     1  <1>       -0.5800000000000001
     10 O4          0.4890    1.2832   -0.7226 O.3     1  <1>       -0.46000000000000085
     11 H1         -0.0504    3.3858    1.7338 H       1  <1>        0.18999999999999995
     12 H2          0.9620    3.5865    0.2643 H       1  <1>        0.19999999999999996
     13 H3          1.4460    2.4349    1.5149 H       1  <1>        0.20999999999999996
     14 H4         -1.1722    0.1844   -1.3352 H       1  <1>        0.18000000000000005
     15 H5          0.2156    0.2656   -2.4604 H       1  <1>        0.18999999999999995
     16 H6          1.5660   -1.1160   -0.9276 H       1  <1>        0.18999999999999995
     17 H7          0.5447   -3.0783   -1.6312 H       1  <1>        0.33999999999999997
     18 H8         -0.9479   -2.4555   -1.5615 H       1  <1>        0.32999999999999996
     19 H9          0.4201   -0.9166    2.3204 H       1  <1>        0.44999999999999996
@<TRIPOS>BOND
     1    15     2    1
     2     6    17    1
     3     6    18    1
     4     6     4    1
     5     2    14    1
     6     2     4    1
     7     2    10    1
     8    16     4    1
     9     4     5    1
    10    10     3    1
    11    12     1    1
    12     3     7    2
    13     3     1    1
    14     5     8    2
    15     5     9    1
    16     1    13    1
    17     1    11    1
    18     9    19    1
