@<TRIPOS>MOLECULE
WBFYVDCHGVNRBH-UHFFFAOYSA-M	6045385	-1095.4395136921407
 36 38 0 0 0
SMALL
MULLIKEN NwChem

@<TRIPOS>ATOM
      1 C          -0.7226    3.9894   -1.4961 C.ar    1  LIG1      -0.17999999999999972
      2 C           1.5694    3.5372   -0.9244 C.ar    1  LIG1      -0.21999999999999975
      3 C          -0.8920    2.6714   -1.8700 C.ar    1  LIG1      -0.21999999999999975
      4 C           1.4144    2.2089   -1.2899 C.ar    1  LIG1      -0.20000000000000018
      5 C           0.7855   -0.7244   -1.8234 C.3     1  LIG1       -0.23000000000000043
      6 C           0.3310   -0.5660    0.7336 C.3     1  LIG1       -0.1900000000000004
      7 C           0.5186    4.4640   -1.0303 C.ar    1  LIG1       0.04999999999999982
      8 C           0.1757    1.7379   -1.7913 C.ar    1  LIG1       0.3600000000000003
      9 C           0.2678   -1.3589   -0.5647 C.2     1  LIG1       0.28000000000000025
     10 C          -0.8790   -3.0725    0.4871 C.ar    1  LIG1       0.08999999999999986
     11 C          -0.4915   -2.6030    1.7312 C.ar    1  LIG1       0.5700000000000003
     12 C          -1.7236   -4.3086    0.4132 C.ar    1  LIG1       0.4800000000000004
     13 C           0.6308    5.8925   -0.6558 C.2     1  LIG1       0.5300000000000002
     14 C          -1.6628   -4.4624    2.7867 C.ar    1  LIG1       0.5800000000000001
     15 N          -1.8860   -4.9479    3.9776 N.pl3   1  LIG1      -0.7999999999999998
     16 N          -0.0139    0.4540   -2.2300 N.pl3   1  LIG1      -0.6600000000000001
     17 N           0.3729   -1.5213    1.8408 N.pl3   1  LIG1      -0.6500000000000004
     18 N          -0.3623   -2.4838   -0.6488 N.2     1  LIG1        -0.54
     19 N          -0.8747   -3.2569    2.8448 N.ar    1  LIG1        -0.71
     20 N          -2.0676   -4.9241    1.5908 N.ar    1  LIG1      -0.6799999999999997
     21 O          -2.0910   -4.7273   -0.6933 O.2     1  LIG1      -0.6699999999999999
     22 O           1.8993    6.3995   -0.5161 O.3     1  LIG1      -0.6199999999999992
     23 O          -0.3142    6.6310   -0.4738 O.2     1  LIG1      -0.5299999999999994
     24 H          -1.5497    4.6899   -1.5547 H       1  LIG1       0.16000000000000003
     25 H           2.5305    3.8356   -0.5077 H       1  LIG1       0.17000000000000004
     26 H          -1.8603    2.3313   -2.2310 H       1  LIG1       0.16000000000000003
     27 H           2.2518    1.5300   -1.1824 H       1  LIG1       0.17000000000000004
     28 H           0.7191   -1.4614   -2.6279 H       1  LIG1       0.17000000000000004
     29 H           1.8311   -0.4073   -1.7437 H       1  LIG1       0.18999999999999995
     30 H          -0.5434    0.1160    0.8064 H       1  LIG1       0.17000000000000004
     31 H           1.2257    0.0677    0.7752 H       1  LIG1       0.18000000000000005
     32 H          -2.4513   -5.7889    3.8400 H       1  LIG1          0.27
     33 H          -0.9841    0.2086   -2.3947 H       1  LIG1          0.36
     34 H           0.4031   -1.0943    2.7597 H       1  LIG1          0.37
     35 H          -0.5658   -2.9906    3.7707 H       1  LIG1          0.36
     36 H           2.5410    5.7589   -0.8613 H       1  LIG1       0.45999999999999996
@<TRIPOS>BOND
     1    28     5    1
     2    33    16    1
     3    26     3    1
     4    16     5    1
     5    16     8    1
     6     3     8   ar
     7     3     1   ar
     8     5    29    1
     9     5     9    1
    10     8     4   ar
    11    24     1    1
    12     1     7   ar
    13     4    27    1
    14     4     2   ar
    15     7     2   ar
    16     7    13    1
    17     2    25    1
    18    36    22    1
    19    21    12    2
    20    13    22    1
    21    13    23    2
    22    18     9    2
    23    18    10    1
    24     9     6    1
    25    12    10   ar
    26    12    20   ar
    27    10    11   ar
    28     6    31    1
    29     6    30    1
    30     6    17    1
    31    20    14   ar
    32    11    17    1
    33    11    19   ar
    34    17    34    1
    35    14    19   ar
    36    14    15    1
    37    19    35    1
    38    32    15    1
