@<TRIPOS>MOLECULE
WDFJYRZCZIUBPR-UHFFFAOYSA-F	6045388	-3045.445048382312
 99 102 0 0 0
SMALL
MULLIKEN NwChem

@<TRIPOS>ATOM
      1 C           6.2034    5.5290    4.1102 C.3     1  LIG1      -0.33000000000000007
      2 C           4.1884    3.1105   -2.0610 C.3     1  LIG1      -0.33999999999999986
      3 C          -1.1542   -0.1435   -3.4264 C.3     1  LIG1      -0.33999999999999986
      4 C          -5.6128   -2.7248    1.5772 C.3     1  LIG1      -0.33999999999999986
      5 C           6.9477    6.8408    3.7744 C.3     1  LIG1       -0.3600000000000003
      6 C           5.6701    2.6777   -2.2120 C.3     1  LIG1       -0.3799999999999999
      7 C          -0.9981   -0.8041   -4.8163 C.3     1  LIG1       -0.3700000000000001
      8 C          -7.0466   -2.6970    0.9653 C.3     1  LIG1       -0.3600000000000003
      9 C           3.0809    5.9754    3.3450 C.3     1  LIG1       -0.4800000000000004
     10 C           3.2222    0.0717   -2.8074 C.3     1  LIG1       -0.4400000000000004
     11 C          -3.5287   -2.2424   -3.0010 C.3     1  LIG1       -0.4400000000000004
     12 C          -6.5912   -5.3887    3.0491 C.3     1  LIG1       -0.4500000000000002
     13 C           2.5303    3.8642    0.7372 C.3     1  LIG1       -0.4500000000000002
     14 C           0.9381   -0.7237   -0.6581 C.3     1  LIG1       -0.45999999999999996
     15 C          -2.8295   -3.8898   -0.3216 C.3     1  LIG1       -0.4800000000000004
     16 C           5.9544    3.9448    2.1022 C.ar    1  LIG1       -0.07000000000000028
     17 C          -4.3258   -7.6822    2.3684 C.3     1  LIG1       -0.1299999999999999
     18 C           5.4182    4.8645    2.9865 C.ar    1  LIG1      0.04999999999999982
     19 C           3.2206    2.2309   -1.2790 C.ar    1  LIG1          0.0
     20 C          -1.3153   -1.0369   -2.2094 C.ar    1  LIG1      -0.009999999999999787
     21 C          -4.8759   -4.0481    1.5467 C.ar    1  LIG1      -0.03000000000000025
     22 C           4.0098    4.9911    2.6578 C.ar    1  LIG1      0.03000000000000025
     23 C           2.6986    0.9412   -1.6915 C.ar    1  LIG1      0.019999999999999574
     24 C          -2.4210   -1.9577   -2.0042 C.ar    1  LIG1      0.009999999999999787
     25 C          -5.3009   -5.2426    2.2589 C.ar    1  LIG1      0.040000000000000036
     26 C           3.7625    4.1198    1.5864 C.ar    1  LIG1          0.25
     27 C           2.5059    2.6162   -0.1346 C.ar    1  LIG1       0.2400000000000002
     28 C          -0.5017   -1.1003   -1.0703 C.ar    1  LIG1       0.23000000000000043
     29 C          -3.6870   -4.3504    0.8722 C.ar    1  LIG1       0.23000000000000043
     30 C           1.6487    0.6097   -0.8343 C.ar    1  LIG1          0.25
     31 C          -2.2747   -2.5472   -0.7529 C.ar    1  LIG1       0.23000000000000043
     32 CA         -4.3776   -6.2364    1.9845 C.ar    1  LIG1       0.21999999999999975
     33 C           7.8757    7.4417    4.8955 C.2     1  LIG1       0.5199999999999996
     34 C           6.5377    3.5858   -3.1720 C.2     1  LIG1       0.5099999999999998
     35 C          -1.3870    0.1158   -6.0388 C.2     1  LIG1       0.5099999999999998
     36 C          -8.1691   -1.9972    1.8292 C.2     1  LIG1       0.5099999999999998
     37 C           1.5875    5.6238    3.7508 C.2     1  LIG1       0.5199999999999996
     38 C           4.2685   -1.0272   -2.3657 C.2     1  LIG1       0.5300000000000002
     39 C          -3.4981   -3.6031   -3.8180 C.2     1  LIG1       0.5300000000000002
     40 C          -6.7603   -6.4934    4.1578 C.2     1  LIG1          0.54
     41 N           4.9513    3.5064    1.2734 N.ar    1  LIG1      -0.6299999999999999
     42 N           1.5718    1.6234    0.1087 N.ar    1  LIG1      -0.6799999999999997
     43 N          -1.1175   -2.0035   -0.2043 N.ar    1  LIG1      -0.6600000000000001
     44 N          -3.3908   -5.6663    1.2069 N.ar    1  LIG1      -0.6500000000000004
     45 O          -3.7745   -7.9818    3.6523 O.3     1  LIG1      -0.7200000000000006
     46 O           8.2092    8.6542    4.7248 O.co2   1  LIG1      -0.6999999999999993
     47 O           8.2411    6.6790    5.8348 O.co2   1  LIG1      -0.6799999999999997
     48 O           5.9323    4.2021   -4.0916 O.co2   1  LIG1      -0.6799999999999997
     49 O           7.7818    3.5935   -2.9497 O.co2   1  LIG1      -0.6999999999999993
     50 O          -2.2305    1.0336   -5.8297 O.co2   1  LIG1      -0.6699999999999999
     51 O          -0.8486   -0.1804   -7.1446 O.co2   1  LIG1      -0.6999999999999993
     52 O          -7.9704   -1.8866    3.0703 O.co2   1  LIG1      -0.6600000000000001
     53 O          -9.1983   -1.6432    1.1849 O.co2   1  LIG1      -0.6999999999999993
     54 O           1.1764    4.4536    3.5798 O.co2   1  LIG1      -0.6500000000000004
     55 O           0.9674    6.6086    4.2524 O.co2   1  LIG1      -0.6999999999999993
     56 O           5.3449   -1.0586   -3.0206 O.co2   1  LIG1      -0.6799999999999997
     57 O           3.9238   -1.7933   -1.4254 O.co2   1  LIG1      -0.6600000000000001
     58 O          -3.3716   -4.6746   -3.1527 O.co2   1  LIG1      -0.6400000000000006
     59 O          -3.6773   -3.5131   -5.0603 O.co2   1  LIG1      -0.6799999999999997
     60 O          -5.7733   -6.7717    4.9241 O.co2   1  LIG1      -0.6799999999999997
     61 O          -7.9148   -6.9863    4.2580 O.co2   1  LIG1      -0.6699999999999999
     62 H           5.5321    5.7201    4.9632 H       1  LIG1          0.13
     63 H           6.9630    4.8338    4.4991 H       1  LIG1          0.12
     64 H           3.8047    3.2473   -3.0786 H       1  LIG1          0.13
     65 H           4.1782    4.1202   -1.6187 H       1  LIG1          0.13
     66 H          -2.0437    0.4942   -3.5136 H       1  LIG1          0.13
     67 H          -0.3102    0.5397   -3.2576 H       1  LIG1          0.13
     68 H          -5.7301   -2.3986    2.6193 H       1  LIG1          0.13
     69 H          -4.9830   -1.9789    1.0755 H       1  LIG1          0.12
     70 H           7.5729    6.6636    2.8813 H       1  LIG1          0.13
     71 H           6.2394    7.6242    3.4693 H       1  LIG1          0.12
     72 H           6.1732    2.6581   -1.2343 H       1  LIG1          0.12
     73 H           5.7125    1.6461   -2.5848 H       1  LIG1          0.14
     74 H           0.0290   -1.1719   -4.9620 H       1  LIG1          0.12
     75 H          -1.6459   -1.6914   -4.8921 H       1  LIG1          0.13
     76 H          -7.0309   -2.2086   -0.0169 H       1  LIG1          0.12
     77 H          -7.3952   -3.7236    0.7702 H       1  LIG1       0.15000000000000002
     78 H           3.5458    6.2750    4.2933 H       1  LIG1       0.15000000000000002
     79 H           3.0293    6.9188    2.7796 H       1  LIG1          0.13
     80 H           2.3801   -0.4616   -3.2752 H       1  LIG1          0.14
     81 H           3.6805    0.6872   -3.5849 H       1  LIG1          0.12
     82 H          -4.4898   -2.2603   -2.4672 H       1  LIG1          0.14
     83 H          -3.5796   -1.4257   -3.7247 H       1  LIG1          0.12
     84 H          -6.8281   -4.4207    3.5229 H       1  LIG1       0.15000000000000002
     85 H          -7.4247   -5.5474    2.3557 H       1  LIG1          0.14
     86 H           1.6793    3.8596    1.4346 H       1  LIG1       0.18000000000000005
     87 H           2.3877    4.7519    0.0897 H       1  LIG1       0.16000000000000003
     88 H           1.6290   -1.4533   -1.1018 H       1  LIG1       0.18000000000000005
     89 H           0.9943   -0.9387    0.4250 H       1  LIG1       0.16000000000000003
     90 H          -3.3339   -4.2595   -1.2300 H       1  LIG1       0.21999999999999997
     91 H          -1.9371   -4.5395   -0.2636 H       1  LIG1       0.15000000000000002
     92 H           6.9629    3.5611    2.0121 H       1  LIG1       0.15000000000000002
     93 H1         -5.3522   -8.0905    2.3018 H       1  LIG1          0.13
     94 H2         -3.7172   -8.2376    1.6342 H       1  LIG1       0.15000000000000002
     95 H           5.0337    2.8409    0.5163 H       1  LIG1          0.36
     96 H           0.8980    1.6612    0.8604 H       1  LIG1          0.36
     97 H          -0.6936   -2.3352    0.6487 H       1  LIG1          0.35
     98 H          -2.7154   -6.1997    0.6823 H       1  LIG1          0.35
     99 H          -4.3994   -7.4753    4.2548 H       1  LIG1       0.42000000000000004
@<TRIPOS>BOND
     1    51    35   ar
     2    35    50   ar
     3    35     7    1
     4    59    39   ar
     5    74     7    1
     6    75     7    1
     7     7     3    1
     8    48    34   ar
     9    39    58   ar
    10    39    11    1
    11    83    11    1
    12    81    10    1
    13    66     3    1
    14     3    67    1
    15     3    20    1
    16    80    10    1
    17    34    49   ar
    18    34     6    1
    19    64     2    1
    20    56    38   ar
    21    11    82    1
    22    11    24    1
    23    10    38    1
    24    10    23    1
    25    73     6    1
    26    38    57   ar
    27     6     2    1
    28     6    72    1
    29    20    24   ar
    30    20    28   ar
    31     2    65    1
    32     2    19    1
    33    24    31   ar
    34    23    19   ar
    35    23    30   ar
    36    19    27   ar
    37    90    15    1
    38    88    14    1
    39    28    14    1
    40    28    43   ar
    41    30    14    1
    42    30    42   ar
    43    31    15    1
    44    31    43   ar
    45    14    89    1
    46    15    91    1
    47    15    29    1
    48    43    97    1
    49    27    42   ar
    50    27    13    1
    51    76     8    1
    52    87    13    1
    53    42    96    1
    54    95    41    1
    55    98    44    1
    56    13    86    1
    57    13    26    1
    58    77     8    1
    59    29    44   ar
    60    29    21   ar
    61     8     4    1
    62     8    36    1
    63    69     4    1
    64    53    36   ar
    65    44    32   ar
    66    41    26   ar
    67    41    16   ar
    68    21     4    1
    69    21    25   ar
    70     4    68    1
    71    26    22   ar
    72    94    17    1
    73    36    52   ar
    74    32    25   ar
    75    32    17    1
    76    92    16    1
    77    16    18   ar
    78    25    12    1
    79    93    17    1
    80    85    12    1
    81    17    45    1
    82    22    18   ar
    83    22     9    1
    84    79     9    1
    85    70     5    1
    86    18     1    1
    87    12    84    1
    88    12    40    1
    89     9    37    1
    90     9    78    1
    91    71     5    1
    92    54    37   ar
    93    45    99    1
    94    37    55   ar
    95     5     1    1
    96     5    33    1
    97     1    63    1
    98     1    62    1
    99    40    61   ar
   100    40    60   ar
   101    46    33   ar
   102    33    47   ar
