@<TRIPOS>MOLECULE
WDJHALXBUFZDSR-UHFFFAOYSA-M	6045389	-381.2035600453087
 12 11 0 0 0
SMALL
MULLIKEN NwChem

@<TRIPOS>ATOM
      1 C           1.2952   -0.3601    1.6985 C.3     1  LIG1            -0.54
      2 C           0.2563   -0.6685   -0.6164 C.3     1  LIG1       -0.4400000000000004
      3 C           1.3507   -0.0661    0.2070 C.2     1  LIG1       0.4500000000000002
      4 C          -1.2065    0.0084   -0.3580 C.2     1  LIG1       0.5199999999999996
      5 O           2.2215    0.6634   -0.2631 O.2     1  LIG1      -0.5399999999999991
      6 O          -1.8031    0.3159   -1.4052 O.co2   1  LIG1      -0.6400000000000006
      7 O          -1.5538    0.0846    0.8436 O.co2   1  LIG1      -0.6300000000000008
      8 H           1.4778   -1.4289    1.8807 H       1  LIG1       0.18000000000000005
      9 H           0.2717   -0.1421    2.0291 H       1  LIG1       0.18999999999999995
     10 H           2.0431    0.2346    2.2320 H       1  LIG1       0.15000000000000002
     11 H           0.5002   -0.5846   -1.6770 H       1  LIG1          0.13
     12 H           0.1201   -1.7237   -0.3414 H       1  LIG1       0.17000000000000004
@<TRIPOS>BOND
     1    11     2    1
     2     6     4   ar
     3     2     4    1
     4     2    12    1
     5     2     3    1
     6     4     7   ar
     7     5     3    2
     8     3     1    1
     9     1     8    1
    10     1     9    1
    11     1    10    1
