@<TRIPOS>MOLECULE
WDWBNNBRPVEEOD-PFXVRADUSA-M	11083945	-934.5758862298134
 59 58 0 0 0
SMALL
MULLIKEN NwChem

@<TRIPOS>ATOM
      1 C           8.1075   -1.2579    0.7823 C.3     1  LIG1      -0.45999999999999996
      2 C           8.2453    0.3243   -1.1749 C.3     1  LIG1      -0.45999999999999996
      3 C           3.1561    1.4035    1.7133 C.3     1  LIG1      -0.46999999999999975
      4 C          -0.6924   -2.6206   -0.5741 C.3     1  LIG1      -0.46999999999999975
      5 C          -5.4197    0.1278    1.7147 C.3     1  LIG1      -0.5599999999999996
      6 C           5.2615    1.1063   -0.5250 C.3     1  LIG1      -0.2699999999999996
      7 C           0.5945   -0.4147    1.1865 C.3     1  LIG1      -0.2699999999999996
      8 C          -3.6550   -1.9833    0.1188 C.3     1  LIG1      -0.2699999999999996
      9 C           5.9939   -0.1586   -0.0591 C.3     1  LIG1        -0.25
     10 C           3.7465    0.9174   -0.7156 C.3     1  LIG1      -0.2599999999999998
     11 C           1.4534    0.3222    0.1503 C.3     1  LIG1      -0.2599999999999998
     12 C          -0.8997   -0.4927    0.8263 C.3     1  LIG1      -0.2599999999999998
     13 C          -2.7600   -1.1323   -0.7933 C.3     1  LIG1      -0.2599999999999998
     14 C          -5.1575   -1.6796   -0.0880 C.3     1  LIG1      -0.33000000000000007
     15 C          -5.9655    0.5982   -0.6971 C.2     1  LIG1       -0.29000000000000004
     16 C           7.5136    0.0029    0.1369 C.3     1  LIG1      -0.05999999999999961
     17 C           2.9445    0.4588    0.5207 C.3     1  LIG1      -0.07000000000000028
     18 C          -1.2433   -1.1873   -0.5079 C.3     1  LIG1      -0.07000000000000028
     19 C          -5.5499   -0.2546    0.2583 C.2     1  LIG1      0.20000000000000018
     20 C          -6.3733    2.0848   -0.6016 C.2     1  LIG1           0.5
     21 O          -6.5570    2.6144   -1.7272 O.co2   1  LIG1      -0.6899999999999995
     22 O          -6.4766    2.6072    0.5435 O.co2   1  LIG1      -0.6699999999999999
     23 H           7.9659   -2.1298    0.1298 H       1  LIG1          0.14
     24 H           9.1842   -1.1474    0.9609 H       1  LIG1          0.14
     25 H           7.6263   -1.4799    1.7424 H       1  LIG1          0.14
     26 H           8.0844   -0.4747   -1.9112 H       1  LIG1          0.14
     27 H           7.9002    1.2630   -1.6205 H       1  LIG1       0.15000000000000002
     28 H           9.3263    0.4127   -1.0107 H       1  LIG1          0.14
     29 H           2.5605    1.0989    2.5795 H       1  LIG1       0.15000000000000002
     30 H           2.8604    2.4276    1.4493 H       1  LIG1          0.14
     31 H           4.2045    1.4296    2.0316 H       1  LIG1       0.15000000000000002
     32 H           0.4042   -2.6388   -0.5568 H       1  LIG1       0.15000000000000002
     33 H          -1.0477   -3.2208    0.2725 H       1  LIG1          0.14
     34 H          -1.0187   -3.1205   -1.4946 H       1  LIG1          0.14
     35 H          -4.3677    0.1132    2.0425 H       1  LIG1       0.16000000000000003
     36 H          -5.9539   -0.5917    2.3576 H       1  LIG1       0.15000000000000002
     37 H          -5.8234    1.1361    1.8446 H       1  LIG1       0.17000000000000004
     38 H           5.6819    1.4458   -1.4805 H       1  LIG1          0.13
     39 H           5.4529    1.9169    0.1918 H       1  LIG1          0.13
     40 H           0.6805    0.0839    2.1609 H       1  LIG1          0.13
     41 H           1.0003   -1.4267    1.3302 H       1  LIG1          0.13
     42 H          -3.4002   -1.8080    1.1716 H       1  LIG1          0.14
     43 H          -3.4727   -3.0518   -0.0669 H       1  LIG1          0.14
     44 H           5.8105   -0.9722   -0.7788 H       1  LIG1          0.12
     45 H           5.5596   -0.4936    0.8922 H       1  LIG1          0.14
     46 H           3.3175    1.8655   -1.0722 H       1  LIG1          0.12
     47 H           3.5844    0.1888   -1.5236 H       1  LIG1          0.13
     48 H           1.3837   -0.2083   -0.8087 H       1  LIG1          0.14
     49 H           1.0328    1.3238   -0.0277 H       1  LIG1          0.12
     50 H          -1.4211   -1.0089    1.6431 H       1  LIG1          0.13
     51 H          -1.3127    0.5252    0.8008 H       1  LIG1          0.13
     52 H          -3.0970   -0.0900   -0.7342 H       1  LIG1          0.13
     53 H          -2.9331   -1.4428   -1.8348 H       1  LIG1          0.12
     54 H          -5.4193   -1.8954   -1.1336 H       1  LIG1          0.14
     55 H          -5.7319   -2.3856    0.5357 H       1  LIG1          0.14
     56 H          -6.0156    0.2211   -1.7218 H       1  LIG1       0.08999999999999997
     57 H           7.6724    0.8448    0.8294 H       1  LIG1          0.12
     58 H           3.3011   -0.5417    0.8108 H       1  LIG1          0.12
     59 H          -0.7613   -0.6128   -1.3131 H       1  LIG1           0.12
@<TRIPOS>BOND
     1    26     2    1
     2    53    13    1
     3    21    20   ar
     4    56    15    1
     5    27     2    1
     6    47    10    1
     7    34     4    1
     8    38     6    1
     9    59    18    1
    10     2    28    1
    11     2    16    1
    12    54    14    1
    13    46    10    1
    14    48    11    1
    15    13    52    1
    16    13    18    1
    17    13     8    1
    18    44     9    1
    19    10     6    1
    20    10    17    1
    21    15    20    1
    22    15    19    2
    23    20    22   ar
    24     4    32    1
    25     4    18    1
    26     4    33    1
    27     6     9    1
    28     6    39    1
    29    18    12    1
    30    14     8    1
    31    14    19    1
    32    14    55    1
    33    43     8    1
    34     9    16    1
    35     9    45    1
    36    49    11    1
    37     8    42    1
    38    23     1    1
    39    16     1    1
    40    16    57    1
    41    11    17    1
    42    11     7    1
    43    19     5    1
    44    17    58    1
    45    17     3    1
    46     1    24    1
    47     1    25    1
    48    51    12    1
    49    12     7    1
    50    12    50    1
    51     7    41    1
    52     7    40    1
    53    30     3    1
    54     3    31    1
    55     3    29    1
    56     5    37    1
    57     5    35    1
    58     5    36    1
