@<TRIPOS>MOLECULE
WEGXYVFDOLUULO-TUUMQRACSA-N	6045392	-1863.7727521048612
 109 109 0 0 0
SMALL
MULLIKEN NwChem

@<TRIPOS>ATOM
      1 C          -2.7362   -0.0308    5.0792 C.3     1  LIG1            -0.54
      2 C          -4.4963   -1.7719    4.4881 C.3     1  LIG1        -0.54
      3 C          -5.0563    4.0292    1.4219 C.3     1  LIG1        -0.54
      4 C          -5.3776   -1.9041   -1.1057 C.3     1  LIG1        -0.54
      5 C          -0.4664   -2.1108    2.7505 C.3     1  LIG1        -0.54
      6 C          -1.4845    2.6090    0.6450 C.3     1  LIG1      -0.5499999999999998
      7 C          -1.7416   -0.1487   -2.7972 C.3     1  LIG1      -0.5499999999999998
      8 C           1.8282   -3.2535   -1.4290 C.3     1  LIG1        -0.54
      9 C           8.1609   -2.3476   -2.4117 C.3     1  LIG1       -0.23000000000000043
     10 C          -4.8243    2.1382    4.5025 C.3     1  LIG1      -0.2999999999999998
     11 C          -5.6408    1.2665    0.0333 C.3     1  LIG1      -0.3200000000000003
     12 C          -2.7452   -2.5318    0.4928 C.3     1  LIG1      -0.33999999999999986
     13 C           0.6236    0.5766    1.7459 C.3     1  LIG1      -0.33000000000000007
     14 C          -0.8460    2.7399   -2.4160 C.3     1  LIG1      -0.3200000000000003
     15 C           0.5627   -1.7977   -4.1578 C.3     1  LIG1      -0.3099999999999996
     16 C          -5.0693    0.6481    4.4321 C.2     1  LIG1      -0.1900000000000004
     17 C          -3.9921    2.6901    3.3140 C.3     1  LIG1      -0.33999999999999986
     18 C          -4.9666    1.5022    1.3552 C.2     1  LIG1      -0.16999999999999993
     19 C          -4.7020    0.5519   -0.9774 C.3     1  LIG1      -0.33999999999999986
     20 C          -3.2750   -1.1807    0.0910 C.2     1  LIG1      -0.17999999999999972
     21 C          -1.1979   -2.6119    0.3554 C.3     1  LIG1      -0.33999999999999986
     22 C           0.0544   -0.5236    0.8745 C.2     1  LIG1      -0.17999999999999972
     23 C           0.9404    1.8828    0.9742 C.3     1  LIG1      -0.3700000000000001
     24 C           0.1036    2.3778   -1.3043 C.2     1  LIG1      -0.1900000000000004
     25 C          -0.5833    1.9359   -3.7097 C.3     1  LIG1      -0.33999999999999986
     26 C           0.4075   -0.3003   -4.1098 C.2     1  LIG1      -0.1900000000000004
     27 C           1.9920   -2.2693   -3.7856 C.3     1  LIG1      -0.33999999999999986
     28 C           2.9775   -1.0484   -1.8610 C.2     1  LIG1      -0.20999999999999996
     29 C           3.4206   -0.7652   -0.4427 C.3     1  LIG1      -0.41999999999999993
     30 C           5.2551    0.9052    0.0948 C.ar    1  LIG1      -0.3099999999999996
     31 C           7.5833    0.3618   -0.2571 C.ar    1  LIG1       -0.2599999999999998
     32 C          -4.1633   -0.3116    4.6710 C.2     1  LIG1      0.17999999999999972
     33 C          -4.7081    2.6672    1.9683 C.2     1  LIG1      0.16999999999999993
     34 C          -4.3754   -0.8867   -0.6179 C.2     1  LIG1      0.16999999999999993
     35 C          -0.4781   -1.6780    1.3051 C.2     1  LIG1      0.16000000000000014
     36 C          -0.1476    2.3161    0.0134 C.2     1  LIG1      0.17999999999999972
     37 C          -0.5755    0.4249   -3.5554 C.2     1  LIG1      0.1900000000000004
     38 C           2.3123   -2.1256   -2.3127 C.2     1  LIG1      0.17999999999999972
     39 C           4.8797   -0.3549   -0.3827 C.ar    1  LIG1       0.1299999999999999
     40 C           6.6048    1.2571    0.1726 C.ar    1  LIG1       0.34999999999999964
     41 C           7.2221   -0.8877   -0.7612 C.ar    1  LIG1       0.33000000000000007
     42 C           5.8632   -1.2593   -0.8133 C.ar    1  LIG1       0.21999999999999975
     43 O           7.0289    2.4740    0.6491 O.3     1  LIG1      -0.6899999999999995
     44 O           5.5338   -2.5256   -1.2501 O.3     1  LIG1      -0.6999999999999993
     45 O           8.2470   -1.7174   -1.1318 O.3     1  LIG1      -0.5500000000000007
     46 H          -2.4111   -0.7186    5.8699 H       1  LIG1       0.15000000000000002
     47 H          -2.5876    0.9908    5.4383 H       1  LIG1       0.16000000000000003
     48 H          -2.0541   -0.1854    4.2331 H       1  LIG1       0.18000000000000005
     49 H          -5.5418   -1.9206    4.2003 H       1  LIG1       0.16000000000000003
     50 H          -3.8672   -2.2218    3.7062 H       1  LIG1       0.18000000000000005
     51 H          -4.3066   -2.3445    5.4077 H       1  LIG1       0.15000000000000002
     52 H          -5.5619    3.9967    0.4538 H       1  LIG1       0.16000000000000003
     53 H          -5.6970    4.5826    2.1210 H       1  LIG1       0.16000000000000003
     54 H          -4.1436    4.6298    1.3012 H       1  LIG1       0.16000000000000003
     55 H          -5.3974   -1.9368   -2.2040 H       1  LIG1       0.16000000000000003
     56 H          -5.1839   -2.9145   -0.7384 H       1  LIG1       0.16000000000000003
     57 H          -6.3904   -1.6256   -0.7843 H       1  LIG1       0.16000000000000003
     58 H           0.0713   -3.0635    2.8517 H       1  LIG1       0.16000000000000003
     59 H           0.0123   -1.3842    3.4115 H       1  LIG1       0.17000000000000004
     60 H          -1.4810   -2.2945    3.1286 H       1  LIG1       0.17000000000000004
     61 H          -2.2516    2.9059   -0.0735 H       1  LIG1       0.16000000000000003
     62 H          -1.8679    1.7345    1.1806 H       1  LIG1       0.18000000000000005
     63 H          -1.3987    3.4148    1.3862 H       1  LIG1       0.16000000000000003
     64 H          -1.7297   -1.2368   -2.7252 H       1  LIG1       0.16000000000000003
     65 H          -1.7570    0.2397   -1.7759 H       1  LIG1       0.18000000000000005
     66 H          -2.6970    0.1411   -3.2540 H       1  LIG1       0.16000000000000003
     67 H           2.5411   -4.0907   -1.4421 H       1  LIG1       0.17000000000000004
     68 H           1.6767   -2.9474   -0.3923 H       1  LIG1       0.17000000000000004
     69 H           0.8747   -3.6464   -1.7953 H       1  LIG1       0.17000000000000004
     70 H           7.4735   -3.1969   -2.3988 H       1  LIG1       0.17000000000000004
     71 H           7.8341   -1.6335   -3.1792 H       1  LIG1       0.16000000000000003
     72 H           9.1753   -2.6832   -2.6435 H       1  LIG1       0.17000000000000004
     73 H          -5.7856    2.6653    4.5422 H       1  LIG1          0.14
     74 H          -4.2973    2.3907    5.4316 H       1  LIG1       0.15000000000000002
     75 H          -6.5375    0.6467    0.1842 H       1  LIG1          0.14
     76 H          -5.9864    2.2056   -0.4125 H       1  LIG1       0.15000000000000002
     77 H          -3.0203   -2.7549    1.5345 H       1  LIG1       0.16000000000000003
     78 H          -3.1905   -3.3287   -0.1138 H       1  LIG1       0.15000000000000002
     79 H          -0.0894    0.8061    2.5490 H       1  LIG1       0.16000000000000003
     80 H           1.5418    0.2476    2.2538 H       1  LIG1       0.15000000000000002
     81 H          -1.8875    2.6075   -2.1041 H       1  LIG1       0.16000000000000003
     82 H          -0.7437    3.8072   -2.6635 H       1  LIG1       0.15000000000000002
     83 H          -0.1683   -2.2990   -3.5126 H       1  LIG1       0.16000000000000003
     84 H           0.3563   -2.1452   -5.1809 H       1  LIG1       0.15000000000000002
     85 H          -6.0609    0.3384    4.1046 H       1  LIG1          0.12
     86 H          -3.6993    3.7217    3.5487 H       1  LIG1          0.14
     87 H          -3.0614    2.1138    3.2508 H       1  LIG1       0.16000000000000003
     88 H          -4.6322    0.5921    1.8478 H       1  LIG1          0.12
     89 H          -5.1766    0.5728   -1.9682 H       1  LIG1          0.14
     90 H          -3.7816    1.1392   -1.0596 H       1  LIG1       0.16000000000000003
     91 H          -2.6466   -0.3472    0.4012 H       1  LIG1          0.14
     92 H          -0.8851   -3.6497    0.5398 H       1  LIG1          0.14
     93 H          -0.9294   -2.3748   -0.6792 H       1  LIG1       0.16000000000000003
     94 H           0.0260   -0.3177   -0.1940 H       1  LIG1          0.13
     95 H           1.1209    2.6745    1.7171 H       1  LIG1          0.14
     96 H           1.8773    1.7595    0.4177 H       1  LIG1       0.17000000000000004
     97 H           1.1103    2.1227   -1.6384 H       1  LIG1          0.12
     98 H          -1.3628    2.2151   -4.4346 H       1  LIG1          0.14
     99 H           0.3706    2.2577   -4.1443 H       1  LIG1          0.14
    100 H           1.1992    0.2439   -4.6290 H       1  LIG1          0.12
    101 H           2.0969   -3.3241   -4.0729 H       1  LIG1       0.15000000000000002
    102 H           2.7163   -1.7066   -4.3866 H       1  LIG1       0.15000000000000002
    103 H           3.2732   -0.2889   -2.5848 H       1  LIG1          0.14
    104 H           2.8055    0.0347   -0.0199 H       1  LIG1       0.18999999999999995
    105 H           3.2591   -1.6435    0.1927 H       1  LIG1       0.17000000000000004
    106 H           4.4883    1.6061    0.4199 H       1  LIG1       0.17000000000000004
    107 H           8.6307    0.6342   -0.2149 H       1  LIG1       0.15000000000000002
    108 H           6.2521    2.9864    0.9199 H       1  LIG1       0.44999999999999996
    109 H           4.6705   -2.4707   -1.7014 H       1  LIG1       0.43000000000000005
@<TRIPOS>BOND
     1    84    15    1
     2   100    26    1
     3    98    25    1
     4   102    27    1
     5    15    26    1
     6    15    27    1
     7    15    83    1
     8    99    25    1
     9    26    37    2
    10   101    27    1
    11    27    38    1
    12    25    37    1
    13    25    14    1
    14    37     7    1
    15    66     7    1
    16    71     9    1
    17     7    64    1
    18     7    65    1
    19    82    14    1
    20    72     9    1
    21   103    28    1
    22    14    81    1
    23    14    24    1
    24     9    70    1
    25     9    45    1
    26    38    28    2
    27    38     8    1
    28    55     4    1
    29    89    19    1
    30    28    29    1
    31    69     8    1
    32   109    44    1
    33    97    24    1
    34    67     8    1
    35     8    68    1
    36    24    36    2
    37    44    42    1
    38    45    41    1
    39     4    57    1
    40     4    56    1
    41     4    34    1
    42    90    19    1
    43    19    34    1
    44    19    11    1
    45    42    41   ar
    46    42    39   ar
    47    41    31   ar
    48    93    21    1
    49    34    20    2
    50    29    39    1
    51    29   104    1
    52    29   105    1
    53    76    11    1
    54    39    30   ar
    55    31   107    1
    56    31    40   ar
    57    94    22    1
    58    78    12    1
    59    61     6    1
    60    36     6    1
    61    36    23    1
    62    11    75    1
    63    11    18    1
    64    20    91    1
    65    20    12    1
    66    30    40   ar
    67    30   106    1
    68    40    43    1
    69    21    12    1
    70    21    92    1
    71    21    35    1
    72    96    23    1
    73    52     3    1
    74    12    77    1
    75     6    62    1
    76     6    63    1
    77    43   108    1
    78    22    35    2
    79    22    13    1
    80    23    95    1
    81    23    13    1
    82    54     3    1
    83    35     5    1
    84    18    88    1
    85    18    33    2
    86     3    33    1
    87     3    53    1
    88    13    80    1
    89    13    79    1
    90    33    17    1
    91     5    58    1
    92     5    60    1
    93     5    59    1
    94    87    17    1
    95    17    86    1
    96    17    10    1
    97    50     2    1
    98    85    16    1
    99    49     2    1
   100    48     1    1
   101    16    10    1
   102    16    32    2
   103     2    32    1
   104     2    51    1
   105    10    73    1
   106    10    74    1
   107    32     1    1
   108     1    47    1
   109     1    46    1
