@<TRIPOS>MOLECULE
WEWBWVMTOYUPHH-QHAQEBJBSA-N	6045393	-936.4056574371219
 37 37 0 0 0
SMALL
MULLIKEN NwChem

@<TRIPOS>ATOM
      1 C           0.8831   -3.6488    0.9499 C.3     1  LIG1      -0.4800000000000004
      2 C          -1.8452   -2.0120    0.9249 C.3     1  LIG1      -0.4900000000000002
      3 C          -0.0511   -3.4449   -0.2459 C.3     1  LIG1      -0.2599999999999998
      4 C          -1.5119    1.6510   -0.7959 C.3     1  LIG1       -0.08000000000000007
      5 C          -1.5779   -2.0021   -1.5073 C.1     1  LIG1       0.3799999999999999
      6 C          -0.6523    1.8881    0.4812 C.3     1  LIG1       0.08000000000000007
      7 C           0.7133    2.5430    0.2374 C.3     1  LIG1       0.08999999999999986
      8 C           1.7111    1.5256   -0.3492 C.3     1  LIG1       0.08999999999999986
      9 C           1.8371    0.3144    0.5946 C.3     1  LIG1       0.07000000000000028
     10 C           0.4489   -0.2765    0.9020 C.3     1  LIG1       0.33999999999999986
     11 C          -0.8325   -2.1071   -0.2296 C.3     1  LIG1       0.2699999999999996
     12 N          -2.1596   -1.9434   -2.5094 N.1     1  LIG1      -0.5499999999999998
     13 O          -1.2276    2.5637   -1.8412 O.3     1  LIG1      -0.6699999999999999
     14 O           1.2287    3.1325    1.4240 O.3     1  LIG1      -0.6799999999999997
     15 O           1.3205    1.1168   -1.6636 O.3     1  LIG1      -0.6899999999999995
     16 O           2.3894    0.6649    1.8631 O.3     1  LIG1      -0.6699999999999999
     17 O          -0.5166    0.6677    1.2669 O.3     1  LIG1      -0.5199999999999996
     18 O           0.1208   -1.0173   -0.2805 O.3     1  LIG1      -0.5600000000000005
     19 H           1.6561   -2.8746    0.9847 H       1  LIG1       0.17000000000000004
     20 H           1.3897   -4.6152    0.8622 H       1  LIG1       0.17000000000000004
     21 H           0.3470   -3.6458    1.9048 H       1  LIG1       0.17000000000000004
     22 H          -2.3696   -1.0566    0.9018 H       1  LIG1       0.18999999999999995
     23 H          -2.5679   -2.8272    0.8266 H       1  LIG1       0.18999999999999995
     24 H          -1.3520   -2.1088    1.8940 H       1  LIG1       0.18999999999999995
     25 H           0.5330   -3.4722   -1.1723 H       1  LIG1       0.17000000000000004
     26 H          -0.7809   -4.2617   -0.3046 H       1  LIG1       0.17000000000000004
     27 H          -1.3957    0.6160   -1.1275 H       1  LIG1       0.16000000000000003
     28 H          -2.5671    1.7891   -0.5405 H       1  LIG1       0.16000000000000003
     29 H          -1.1872    2.5566    1.1605 H       1  LIG1       0.17000000000000004
     30 H           0.5746    3.3593   -0.4735 H       1  LIG1       0.16000000000000003
     31 H           2.6892    2.0152   -0.4399 H       1  LIG1       0.17000000000000004
     32 H           2.4379   -0.4676    0.1104 H       1  LIG1       0.18000000000000005
     33 H           0.5315   -0.9417    1.7640 H       1  LIG1       0.18000000000000005
     34 H          -0.3691    2.2819   -2.2079 H       1  LIG1       0.42000000000000004
     35 H           1.3131    2.4130    2.0743 H       1  LIG1       0.42000000000000004
     36 H           0.8535    0.2640   -1.5911 H       1  LIG1       0.44999999999999996
     37 H           3.1954    1.1835    1.7070 H       1  LIG1       0.43999999999999995
@<TRIPOS>BOND
     1    12     5    3
     2    34    13    1
     3    13     4    1
     4    15    36    1
     5    15     8    1
     6     5    11    1
     7    25     3    1
     8    27     4    1
     9     4    28    1
    10     4     6    1
    11    30     7    1
    12    31     8    1
    13     8     7    1
    14     8     9    1
    15    26     3    1
    16    18    11    1
    17    18    10    1
    18     3    11    1
    19     3     1    1
    20    11     2    1
    21    32     9    1
    22     7     6    1
    23     7    14    1
    24     6    29    1
    25     6    17    1
    26     9    10    1
    27     9    16    1
    28    23     2    1
    29    20     1    1
    30    22     2    1
    31    10    17    1
    32    10    33    1
    33     2    24    1
    34     1    19    1
    35     1    21    1
    36    14    35    1
    37    37    16    1
