@<TRIPOS>MOLECULE
WFOFKRKDDKGRIK-DMTCNVIQSA-M	6045394	-474.6091178783691
 15 15 0 0 0
SMALL
MULLIKEN NwChem

@<TRIPOS>ATOM
      1 CB         -1.0091    0.4713    0.3766 C.3     1  HYP1       -0.3099999999999996
      2 CD          1.2652    1.0321    0.4519 C.3     1  HYP1       0.03000000000000025
      3 CG         -0.0603    1.6331    0.0209 C.3     1  HYP1       0.09999999999999964
      4 CA         -0.0605   -0.7539    0.4102 C.3     1  HYP1       -0.08000000000000007
      5 C          -0.0014   -1.4199   -1.0541 C.2     1  HYP1       0.5199999999999996
      6 N           1.2618   -0.2123    0.7440 N.3     1  HYP1      -0.41000000000000014
      7 OD         -0.3487    2.8886    0.6679 O.3     1  HYP1      -0.6799999999999997
      8 OXT        -0.1480   -2.6572   -1.0863 O.co2   1  HYP1      -0.6600000000000001
      9 O           0.1561   -0.5754   -1.9695 O.co2   1  HYP1      -0.6500000000000004
     10 HB1        -1.4286    0.6628    1.3792 H       1  HYP1       0.15000000000000002
     11 HB2        -1.8336    0.3604   -0.3307 H       1  HYP1       0.15000000000000002
     12 HD          2.1722    1.6378    0.5319 H       1  HYP1       0.15000000000000002
     13 HG         -0.0703    1.8437   -1.0500 H       1  HYP1       0.16000000000000003
     14 HA         -0.3405   -1.5263    1.1325 H       1  HYP1       0.10999999999999999
     15 HD         -0.3269    2.7015    1.6210 H       1  HYP1       0.42000000000000004
@<TRIPOS>BOND
     1     9     5   ar
     2     8     5   ar
     3     5     4    1
     4    13     3    1
     5    11     1    1
     6     3     1    1
     7     3     2    1
     8     3     7    1
     9     1     4    1
    10     1    10    1
    11     4     6    1
    12     4    14    1
    13     2    12    1
    14     2     6    1
    15     7    15    1
