@<TRIPOS>MOLECULE
WGCNASOHLSPBMP-UHFFFAOYSA-N	6045398	-229.00808082836997
 8 7 0 0 0
SMALL
MULLIKEN NwChem

@<TRIPOS>ATOM
      1 C           0.7014    0.5739    0.0468 C.2     1  LIG1       0.23000000000000043
      2 C           0.0700   -0.5274   -0.7756 C.3     1  LIG1       -0.08999999999999986
      3 O           0.4382    0.7231    1.2225 O.2     1  LIG1      -0.4399999999999995
      4 O          -0.8164   -1.3074   -0.0236 O.3     1  LIG1      -0.6699999999999999
      5 H           1.4175    1.2380   -0.4796 H       1  LIG1       0.17000000000000004
      6 H          -0.4364   -0.0548   -1.6365 H       1  LIG1       0.18999999999999995
      7 H           0.8868   -1.1382   -1.2011 H       1  LIG1       0.18000000000000005
      8 H          -0.8019   -0.9303    0.8766 H       1  LIG1       0.42000000000000004
@<TRIPOS>BOND
     1     6     2    1
     2     7     2    1
     3     2     4    1
     4     2     1    1
     5     5     1    1
     6     4     8    1
     7     1     3    2
