@<TRIPOS>MOLECULE
WHBMMWSBFZVSSR-VKHMYHEASA-M	6045399	-382.38510579614007
 14 13 0 0 0
SMALL
MULLIKEN NwChem

@<TRIPOS>ATOM
      1 C           0.5094   -1.0368   -1.6612 C.3     1  LIG1      -0.45999999999999996
      2 C           0.7123   -0.2874    0.7632 C.3     1  LIG1       -0.3899999999999997
      3 C           0.1098   -1.3244   -0.2044 C.3     1  LIG1       0.13999999999999968
      4 C           0.1566    1.1667    0.5718 C.2     1  LIG1       0.5499999999999998
      5 O          -1.3043   -1.3640   -0.0779 O.3     1  LIG1      -0.7200000000000006
      6 O          -1.0424    1.2384    0.1349 O.co2   1  LIG1      -0.6699999999999999
      7 O           0.9129    2.1040    0.8869 O.co2   1  LIG1      -0.6600000000000001
      8 H           0.1436   -0.0422   -1.9377 H       1  LIG1          0.14
      9 H           0.0514   -1.7758   -2.3304 H       1  LIG1          0.14
     10 H           1.6000   -1.0625   -1.7988 H       1  LIG1          0.14
     11 H           0.4686   -0.5989    1.7900 H       1  LIG1          0.14
     12 H           1.8064   -0.2602    0.6839 H       1  LIG1          0.13
     13 H           0.4818   -2.3290    0.0627 H       1  LIG1       0.10999999999999999
     14 H          -1.5114   -0.3826   -0.0204 H       1  LIG1            0.4
@<TRIPOS>BOND
     1     9     1    1
     2     8     1    1
     3    10     1    1
     4     1     3    1
     5     3     5    1
     6     3    13    1
     7     3     2    1
     8     5    14    1
     9     6     4   ar
    10     4     2    1
    11     4     7   ar
    12    12     2    1
    13     2    11    1
