@<TRIPOS>MOLECULE
WHKYNCPIXMNTRQ-YFKPBYRVSA-M	6119256	-788.5840675197682
 19 18 0 0 0
SMALL
MULLIKEN NwChem

@<TRIPOS>ATOM
      1 C           0.4632    0.5051    0.1413 C.ar    1  LIG1       0.3899999999999997
      2 C          -0.5499   -2.2225    1.8221 C.1     1  LIG1       0.7699999999999996
      3 C          -1.1381    2.1433    0.3115 C.2     1  LIG1       0.5499999999999998
      4 C           1.7263   -1.1916   -0.2757 C.ar    1  LIG1       0.7300000000000004
      5 C           0.1643    0.0531   -1.1957 C.ar    1  LIG1          0.54
      6 N          -2.2417    1.6035   -0.1287 N.2     1  LIG1      -0.7400000000000002
      7 N          -0.0185    1.5326    0.8162 N.pl3   1  LIG1      -0.5599999999999996
      8 N           1.4550   -0.3363    0.6636 N.ar    1  LIG1      -0.5800000000000001
      9 N           0.9966   -1.0164   -1.4299 N.ar    1  LIG1      -0.6299999999999999
     10 O          -1.4281   -1.6274    1.3284 O.2     1  LIG1      -0.3800000000000008
     11 O           0.3112   -2.8457    2.3076 O.2     1  LIG1      -0.3800000000000008
     12 O          -1.0370    3.4860    0.3095 O.2     1  LIG1      -0.5800000000000001
     13 O           2.5931   -2.2059   -0.2218 O.3     1  LIG1      -0.6099999999999994
     14 O          -0.6783    0.4574   -2.1360 O.3     1  LIG1      -0.6300000000000008
     15 H          -2.2522    0.6077    0.1040 H       1  LIG1       0.32999999999999996
     16 H           1.0349   -1.5739   -2.2714 H       1  LIG1       0.41000000000000003
     17 H          -1.9170    3.8111    0.0444 H       1  LIG1       0.44999999999999996
     18 H           2.9619   -2.2078    0.6800 H       1  LIG1          0.47
     19 H          -1.3680    1.0344   -1.7001 H       1  LIG1       0.45999999999999996
@<TRIPOS>BOND
     1    16     9    1
     2    14    19    1
     3    14     5    1
     4     9     5   ar
     5     9     4   ar
     6     5     1   ar
     7     4    13    1
     8     4     8   ar
     9    13    18    1
    10     6    15    1
    11     6     3    2
    12    17    12    1
    13     1     8   ar
    14     1     7    1
    15    12     3    1
    16     3     7    1
    17    10     2    2
    18     2    11    2
