@<TRIPOS>MOLECULE
WHOMFKWHIQZTHY-UHFFFAOYSA-L	6045401	-1158.5323019225525
 26 26 0 0 0
SMALL
MULLIKEN NwChem

@<TRIPOS>ATOM
      1 C           3.3858    0.7188   -3.2582 C.3     1  LIG1      -0.5099999999999998
      2 C           1.3533    2.0060   -0.4821 C.2     1  LIG1       -0.11000000000000032
      3 C           0.2979   -1.6579   -0.0612 C.3     1  LIG1       -0.1200000000000001
      4 C          -0.3497    1.1728    1.1161 C.3     1  LIG1       -0.15000000000000036
      5 C           2.4264    0.7846   -2.0963 C.2     1  LIG1       0.20000000000000018
      6 C           0.6740    0.8880    0.0254 C.2     1  LIG1      0.08999999999999986
      7 C           0.8957   -0.3657   -0.5666 C.3     1  LIG1       -0.019999999999999574
      8 C           1.8259   -0.4703   -1.6783 C.2     1  LIG1       0.3200000000000003
      9 N           2.2049    1.9666   -1.5245 N.2     1  LIG1      -0.5300000000000002
     10 O          -1.1256   -1.8617   -0.2570 O.3     1  LIG1      -0.7100000000000009
     11 O           2.1318   -1.5581   -2.2660 O.2     1  LIG1        -0.75
     12 O          -2.8570   -0.1858    1.2937 O.2     1  LIG1      -0.7400000000000002
     13 O          -1.6193   -2.0316    2.5841 O.3     1  LIG1      -0.7400000000000002
     14 O          -2.3731    0.0400    3.8917 O.3     1  LIG1      -0.6699999999999999
     15 O          -0.4569    0.1675    2.1230 O.3     1  LIG1      -0.5999999999999996
     16 P          -1.9837   -0.4189    2.5186 P.3     1  LIG1       1.0899999999999999
     17 H           3.7805    1.7172   -3.4839 H       1  LIG1          0.13
     18 H           2.8979    0.3052   -4.1537 H       1  LIG1          0.14
     19 H           4.2194    0.0330   -3.0436 H       1  LIG1          0.14
     20 H           1.1980    2.9879   -0.0274 H       1  LIG1       0.10999999999999999
     21 H           0.7770   -2.4634   -0.6236 H       1  LIG1          0.13
     22 H           0.5267   -1.7748    1.0053 H       1  LIG1          0.13
     23 H          -0.0786    2.1234    1.6045 H       1  LIG1       0.15000000000000002
     24 H          -1.3344    1.3168    0.6544 H       1  LIG1       0.17000000000000004
     25 H          -1.6330   -1.0797    0.0610 H       1  LIG1       0.42000000000000004
     26 H          -1.5094   -2.3083    1.6478 H       1  LIG1       0.43999999999999995
@<TRIPOS>BOND
     1    18     1    1
     2    17     1    1
     3     1    19    1
     4     1     5    1
     5    11     8    2
     6     5     8    1
     7     5     9    2
     8     8     7    1
     9     9     2    1
    10    21     3    1
    11     7     3    1
    12     7     6    1
    13     2    20    1
    14     2     6    2
    15    10     3    1
    16    10    25    1
    17     3    22    1
    18     6     4    1
    19    24     4    1
    20     4    23    1
    21     4    15    1
    22    12    16    2
    23    26    13    1
    24    15    16    1
    25    16    13    1
    26    16    14    1
