@<TRIPOS>MOLECULE
WHOOUMGHGSPMGR-UHFFFAOYSA-N	6045402	-516.3330262016517
 21 22 0 0 0
SMALL
MULLIKEN NwChem

@<TRIPOS>ATOM
      1 C           2.9745    0.0571   -0.2156 C.ar    1  LIG1      -0.16999999999999993
      2 C           2.9479    1.4678   -0.1997 C.ar    1  LIG1      -0.17999999999999972
      3 C           1.7991   -0.6825   -0.2314 C.ar    1  LIG1      -0.2400000000000002
      4 C           1.7459    2.1658   -0.2013 C.ar    1  LIG1      -0.1900000000000004
      5 C          -1.3358   -1.8436   -0.2405 C.3     1  LIG1       -0.41000000000000014
      6 C          -2.1873   -2.0338    1.0017 C.2     1  LIG1       0.2599999999999998
      7 C          -1.5735    0.7109   -0.2400 C.ar    1  LIG1           0.0
      8 C          -0.8089   -0.4320   -0.2534 C.ar    1  LIG1      0.019999999999999574
      9 C           0.5673   -0.0063   -0.2322 C.ar    1  LIG1       0.05999999999999961
     10 C           0.5656    1.4160   -0.2176 C.ar    1  LIG1       0.29000000000000004
     11 N          -0.7539    1.8210   -0.2240 N.ar    1  LIG1      -0.6799999999999997
     12 O          -3.3857   -2.2115    0.9878 O.2     1  LIG1      -0.4499999999999993
     13 H           3.9324   -0.4556   -0.2159 H       1  LIG1       0.15000000000000002
     14 H           3.8839    2.0192   -0.1860 H       1  LIG1       0.15000000000000002
     15 H           1.8316   -1.7692   -0.2433 H       1  LIG1       0.15000000000000002
     16 H           1.7239    3.2523   -0.1901 H       1  LIG1       0.16000000000000003
     17 H          -1.9472   -2.0748   -1.1194 H       1  LIG1       0.18000000000000005
     18 H          -0.4959   -2.5496   -0.2091 H       1  LIG1       0.18999999999999995
     19 H          -1.6288   -1.9415    1.9605 H       1  LIG1          0.14
     20 H          -2.6500    0.8149   -0.2408 H       1  LIG1       0.18999999999999995
     21 H          -1.0708    2.7776   -0.2130 H       1  LIG1           0.38
@<TRIPOS>BOND
     1    17     5    1
     2     8     5    1
     3     8     7   ar
     4     8     9   ar
     5    15     3    1
     6    20     7    1
     7     5    18    1
     8     5     6    1
     9     7    11   ar
    10     9     3   ar
    11     9    10   ar
    12     3     1   ar
    13    11    10   ar
    14    11    21    1
    15    10     4   ar
    16    13     1    1
    17     1     2   ar
    18     4     2   ar
    19     4    16    1
    20     2    14    1
    21    12     6    2
    22     6    19    1
