@<TRIPOS>MOLECULE
WHTCPDAXWFLDIH-KQYNXXCUSA-J	11083943	-2096.9230039338886
 38 40 0 0 0
SMALL
MULLIKEN NwChem

@<TRIPOS>ATOM
      1 C          -1.7269   -1.5424    1.1091 C.3     1  LIG1       -0.019999999999999574
      2 C           3.8994    2.5108   -1.3675 C.ar    1  LIG1       0.15000000000000036
      3 C           1.8283   -0.6291    0.8689 C.ar    1  LIG1       0.15000000000000036
      4 C          -1.7631   -0.0348    0.8439 C.3     1  LIG1       0.09999999999999964
      5 C           3.5342    0.1755   -0.1509 C.ar    1  LIG1       0.20000000000000018
      6 C          -0.6954    1.6104   -0.6231 C.3     1  LIG1       0.07000000000000028
      7 C          -1.6849    0.3919   -0.6486 C.3     1  LIG1       0.13999999999999968
      8 C           4.7474    0.4669   -0.7762 C.ar    1  LIG1       0.41000000000000014
      9 C           2.5291    1.1674   -0.2334 C.ar    1  LIG1          0.54
     10 C           0.1302    1.3440    0.6489 C.3     1  LIG1       0.2699999999999996
     11 N           5.8086   -0.4601   -0.7486 N.pl3   1  LIG1      -0.7800000000000002
     12 N           4.9372    1.6434   -1.4009 N.ar    1  LIG1        -0.54
     13 N           2.6924    2.3689   -0.8207 N.ar    1  LIG1        -0.54
     14 N           3.0870   -0.9274    0.5309 N.ar    1  LIG1      -0.6100000000000003
     15 N           1.4456    0.6298    0.4046 N.ar    1  LIG1        -0.54
     16 O          -1.3425    2.8393   -0.4338 O.3     1  LIG1      -0.7400000000000002
     17 O          -0.7838   -2.7974    4.6188 O.3     1  LIG1      -0.7699999999999996
     18 O          -1.2597   -4.3978    2.6182 O.3     1  LIG1      -0.7899999999999991
     19 O           0.6586   -2.6657    2.4469 O.2     1  LIG1      -0.7699999999999996
     20 O          -2.1732    0.5224   -3.6355 O.2     1  LIG1      -0.7799999999999994
     21 O          -2.7461    2.8184   -2.5629 O.3     1  LIG1      -0.8000000000000007
     22 O          -4.6509    1.1204   -3.0312 O.3     1  LIG1        -0.75
     23 O          -1.7977   -1.8321    2.4760 O.3     1  LIG1      -0.6400000000000006
     24 O          -0.6270    0.5982    1.5274 O.3     1  LIG1      -0.5299999999999994
     25 O          -2.9642    0.6775   -1.1405 O.3     1  LIG1      -0.6600000000000001
     26 P          -0.6969   -3.0558    3.1106 P.3     1  LIG1       0.9000000000000004
     27 P          -3.1576    1.3184   -2.7755 P.3     1  LIG1       0.9600000000000009
     28 H          -0.8100   -1.9512    0.6593 H       1  LIG1          0.13
     29 H          -2.5821   -1.9712    0.5448 H       1  LIG1          0.12
     30 H           4.0813    3.4638   -1.8694 H       1  LIG1       0.16000000000000003
     31 H           1.1817   -1.3039    1.4983 H       1  LIG1          0.26
     32 H          -2.6637    0.4054    1.2863 H       1  LIG1          0.14
     33 H          -0.0672    1.6099   -1.5288 H       1  LIG1          0.13
     34 H          -1.2058   -0.4095   -1.2392 H       1  LIG1          0.12
     35 H           0.4184    2.3020    1.1013 H       1  LIG1       0.17000000000000004
     36 H           5.4404   -1.3866   -0.5455 H       1  LIG1          0.36
     37 H           6.3235   -0.4453   -1.6242 H       1  LIG1          0.36
     38 H          -1.9794    2.9032   -1.2634 H       1  LIG1       0.43999999999999995
@<TRIPOS>BOND
     1    20    27    2
     2    22    27    1
     3    27    21    1
     4    27    25    1
     5    30     2    1
     6    37    11    1
     7    33     6    1
     8    12     2   ar
     9    12     8   ar
    10     2    13   ar
    11    38    16    1
    12    34     7    1
    13    25     7    1
    14    13     9   ar
    15     8    11    1
    16     8     5   ar
    17    11    36    1
    18     7     6    1
    19     7     4    1
    20     6    16    1
    21     6    10    1
    22     9     5   ar
    23     9    15   ar
    24     5    14   ar
    25    15    10    1
    26    15     3   ar
    27    14     3   ar
    28    29     1    1
    29    10    35    1
    30    10    24    1
    31    28     1    1
    32     4     1    1
    33     4    32    1
    34     4    24    1
    35     3    31    1
    36     1    23    1
    37    19    26    2
    38    23    26    1
    39    18    26    1
    40    26    17    1
