@<TRIPOS>MOLECULE
WHUUTDBJXJRKMK-VKHMYHEASA-M	6045404	-551.0586875360389
 18 17 0 0 0
SMALL
MULLIKEN NwChem

@<TRIPOS>ATOM
      1 CB          0.1622    0.3043   -1.0419 C.3     1  GLU1            -0.25
      2 CG         -0.1497   -1.1208   -1.5202 C.3     1  GLU1       -0.3600000000000003
      3 CA         -0.4758    0.6071    0.3330 C.3     1  GLU1       -0.08999999999999986
      4 CD          0.4710   -2.2778   -0.6537 C.2     1  GLU1       0.5199999999999996
      5 C           0.0832    1.8686    0.9538 C.2     1  GLU1       0.5800000000000001
      6 N          -1.9388    0.6522    0.2439 N.3     1  GLU1        -0.75
      7 OE2         0.7245   -2.0056    0.5585 O.co2   1  GLU1      -0.6600000000000001
      8 OE1         0.6222   -3.3631   -1.2556 O.co2   1  GLU1      -0.6699999999999999
      9 OXT        -0.5643    2.8415    1.3101 O.2     1  GLU1      -0.5299999999999994
     10 O           1.4365    1.8462    1.1099 O.3     1  GLU1      -0.5899999999999999
     11 HB1        -0.1901    1.0539   -1.7719 H       1  GLU1          0.13
     12 HB2         1.2467    0.4270   -0.9466 H       1  GLU1          0.14
     13 HG1        -1.2391   -1.2581   -1.5399 H       1  GLU1          0.14
     14 HG2         0.2034   -1.2504   -2.5511 H       1  GLU1          0.12
     15 HA         -0.1571   -0.2629    0.9368 H       1  GLU1       0.19999999999999996
     16 H1         -2.3189    0.6389    1.1897 H       1  GLU1       0.31999999999999995
     17 H2         -2.2039    1.5674   -0.1239 H       1  GLU1       0.31000000000000005
     18 H           1.6538    2.7010    1.5255 H       1  GLU1       0.43999999999999995
@<TRIPOS>BOND
     1    14     2    1
     2    11     1    1
     3    13     2    1
     4     2     1    1
     5     2     4    1
     6     8     4   ar
     7     1    12    1
     8     1     3    1
     9     4     7   ar
    10    17     6    1
    11     6     3    1
    12     6    16    1
    13     3    15    1
    14     3     5    1
    15     5    10    1
    16     5     9    2
    17    10    18    1
