@<TRIPOS>MOLECULE
WIJKWEYCUNYTGY-UWVGGRQHSA-N	6045405	-800.6753249916559
 31 32 0 0 0
SMALL
MULLIKEN NwChem

@<TRIPOS>ATOM
      1 CZ          1.7425   -0.5199   -2.7490 C.ar    1  PHE1      -0.15000000000000036
      2 CE1         0.4669    0.0325   -2.8956 C.ar    1  PHE1      -0.15000000000000036
      3 CE2         1.9654   -1.4911   -1.7699 C.ar    1  PHE1      -0.15000000000000036
      4 CD1        -0.5792   -0.3895   -2.0726 C.ar    1  PHE1      -0.1900000000000004
      5 CD2         0.9177   -1.9092   -0.9474 C.ar    1  PHE1      -0.20000000000000018
      6 CB         -1.4894   -1.7866   -0.1707 C.3     1  PHE1       -0.3600000000000003
      7 CB          1.3835    1.5713    0.4676 C.3     2  SER2       -0.04999999999999982
      8 CG         -0.3680   -1.3705   -1.0929 C.ar    1  PHE1      0.15000000000000036
      9 CA         -1.6206   -0.8563    1.0810 C.3     1  PHE1       -0.08000000000000007
     10 CA          0.2273    1.2792    1.4397 C.3     2  SER2       -0.08999999999999986
     11 C          -0.3514   -0.9196    1.9157 C.2     1  PHE1       0.5300000000000002
     12 C          -1.1292    1.3936    0.7514 C.2     2  SER2       0.5300000000000002
     13 N          -1.9963    0.4692    0.6411 N.2     1  PHE1      -0.5099999999999998
     14 N           0.4874    0.0118    2.0945 N.2     2  SER2      -0.5099999999999998
     15 OG          1.2592    2.9348    0.0140 O.3     2  SER2      -0.6600000000000001
     16 O          -0.0757   -2.1252    2.4932 O.2     1  PHE1      -0.6400000000000006
     17 O          -1.4270    2.6182    0.2669 O.2     2  SER2      -0.6500000000000004
     18 HZ          2.5559   -0.1981   -3.3942 H       1  PHE1       0.15000000000000002
     19 HE1         0.2828    0.7882   -3.6552 H       1  PHE1       0.16000000000000003
     20 HE2         2.9549   -1.9220   -1.6437 H       1  PHE1       0.16000000000000003
     21 HD1        -1.5658    0.0527   -2.1740 H       1  PHE1       0.15000000000000002
     22 HD2         1.1003   -2.6507   -0.1734 H       1  PHE1       0.15000000000000002
     23 HB1        -2.4506   -1.7442   -0.6923 H       1  PHE1       0.18000000000000005
     24 HB2        -1.3425   -2.8231    0.1582 H       1  PHE1       0.17000000000000004
     25 HB1         2.3309    1.4331    1.0013 H       2  SER2       0.16000000000000003
     26 HB2         1.3451    0.8716   -0.3715 H       2  SER2       0.18000000000000005
     27 HA         -2.4467   -1.2603    1.6890 H       1  PHE1       0.18999999999999995
     28 HA          0.2624    2.0686    2.2065 H       2  SER2       0.18999999999999995
     29 H           1.5518    2.9724   -0.9083 H       2  SER2       0.44999999999999996
     30 H          -0.8349   -2.7166    2.3741 H       1  PHE1       0.45999999999999996
     31 H          -0.5809    3.1122    0.1959 H       2  SER2       0.44999999999999996
@<TRIPOS>BOND
     1    19     2    1
     2    18     1    1
     3     2     1   ar
     4     2     4   ar
     5     1     3   ar
     6    21     4    1
     7     4     8   ar
     8     3    20    1
     9     3     5   ar
    10     8     5   ar
    11     8     6    1
    12     5    22    1
    13    29    15    1
    14    23     6    1
    15    26     7    1
    16     6    24    1
    17     6     9    1
    18    15     7    1
    19    31    17    1
    20    17    12    1
    21     7    25    1
    22     7    10    1
    23    13    12    2
    24    13     9    1
    25    12    10    1
    26     9    27    1
    27     9    11    1
    28    10    14    1
    29    10    28    1
    30    11    14    2
    31    11    16    1
    32    30    16    1
