@<TRIPOS>MOLECULE
WIOQNWTZBOQTEU-ZMHDXICWSA-J	11083942	-4173.422732475133
 93 95 0 0 0
SMALL
MULLIKEN NwChem

@<TRIPOS>ATOM
      1 C          12.3118    2.6567    2.7623 C.3     1  LIG1      -0.4500000000000002
      2 C           1.8009    1.2503   -1.7117 C.3     1  LIG1      -0.46999999999999975
      3 C           2.7481   -0.2729    0.0578 C.3     1  LIG1      -0.46999999999999975
      4 C          12.0468    1.2248    2.3059 C.3     1  LIG1       -0.3799999999999999
      5 C           7.3871    0.7413    1.3949 C.3     1  LIG1       -0.33000000000000007
      6 C           5.9439    0.7347    0.8536 C.3     1  LIG1       -0.1200000000000001
      7 C           9.4140   -0.7967   -1.3462 C.3     1  LIG1       -0.1200000000000001
      8 C          10.4564    0.2966   -1.6661 C.3     1  LIG1       -0.4500000000000002
      9 C          12.4661   -0.5494    0.5130 C.3     1  LIG1       -0.4800000000000004
     10 C          -4.2986   -2.1117    0.5981 C.3     1  LIG1       -0.05999999999999961
     11 C           1.1132    1.5468    0.6751 C.3     1  LIG1       -0.05999999999999961
     12 C         -10.5448    1.4777    2.4354 C.ar    1  LIG1       0.15000000000000036
     13 C          -6.6297    1.4147    0.5213 C.ar    1  LIG1       0.20000000000000018
     14 C          12.7261    0.8783    0.9945 C.2     1  LIG1       0.46999999999999975
     15 C          -5.7552   -2.5631    0.5388 C.3     1  LIG1       0.1200000000000001
     16 C           8.4994    0.0573    0.5949 C.2     1  LIG1           0.5
     17 C          13.0220   -0.8380   -0.8681 C.2     1  LIG1       0.2999999999999998
     18 C          -8.2143    2.3950    1.5507 C.ar    1  LIG1       0.1900000000000004
     19 C          -7.0999   -1.2835   -1.0124 C.3     1  LIG1       0.05999999999999961
     20 C          -6.3798   -2.6367   -0.8633 C.3     1  LIG1       0.04999999999999982
     21 C           3.4572    2.1784   -0.0468 C.3     1  LIG1       0.05999999999999961
     22 C          -9.1276    3.2646    2.1602 C.ar    1  LIG1       0.4400000000000004
     23 C          -8.6074    1.0511    1.4424 C.ar    1  LIG1          0.54
     24 C           4.0616    2.1589    1.4049 C.2     1  LIG1       0.46999999999999975
     25 C          -7.5066   -0.9964    0.4529 C.3     1  LIG1       0.2699999999999996
     26 C           2.2785    1.1569   -0.2510 C.3     1  LIG1       0.08000000000000007
     27 N          -8.8281    4.6001    2.3473 N.pl3   1  LIG1      -0.7800000000000002
     28 N           8.2744   -0.2094   -0.6800 N.am    1  LIG1      -0.5999999999999996
     29 N           5.0986    1.4598    1.7904 N.am    1  LIG1      -0.5999999999999996
     30 N         -10.3109    2.7968    2.5972 N.ar    1  LIG1        -0.54
     31 N          -9.7713    0.5432    1.8840 N.ar    1  LIG1        -0.54
     32 N          -6.9811    2.6046    0.9689 N.ar    1  LIG1      -0.5800000000000001
     33 N          -7.5777    0.4306    0.7757 N.ar    1  LIG1      -0.5300000000000002
     34 O          13.3966    1.6837    0.3672 O.2     1  LIG1      -0.5099999999999998
     35 O           9.5933   -0.1745    1.2421 O.2     1  LIG1      -0.6699999999999999
     36 O          14.0903   -1.4035   -1.0380 O.2     1  LIG1      -0.4900000000000002
     37 O          -8.2132   -1.3410   -1.8789 O.3     1  LIG1      -0.6799999999999997
     38 O           2.9956    3.5127   -0.2696 O.3     1  LIG1      -0.7100000000000009
     39 O           3.3873    2.9359    2.1762 O.2     1  LIG1      -0.7300000000000004
     40 O          -8.3204   -5.9394   -1.3856 O.2     1  LIG1      -0.6699999999999999
     41 O          -6.2955   -5.0744   -2.7180 O.3     1  LIG1      -0.7300000000000004
     42 O          -5.9336   -5.6253   -0.2425 O.3     1  LIG1      -0.7100000000000009
     43 O          -3.4439   -1.6161   -2.1683 O.2     1  LIG1      -0.6500000000000004
     44 O          -4.3615    0.8463   -1.7433 O.3     1  LIG1      -0.6799999999999997
     45 O          -2.3595    0.8384    1.4694 O.3     1  LIG1      -0.7100000000000009
     46 O          -1.5558    2.6180   -0.2715 O.2     1  LIG1      -0.6199999999999992
     47 O          -4.1496   -0.7518    0.1802 O.3     1  LIG1      -0.6500000000000004
     48 O          -0.0292    0.6443    0.4763 O.3     1  LIG1      -0.5399999999999991
     49 O          -6.5721   -1.6293    1.2977 O.3     1  LIG1      -0.5299999999999994
     50 O          -7.4186   -3.6174   -0.9240 O.3     1  LIG1      -0.6300000000000008
     51 O          -1.9956    0.0823   -0.9235 O.3     1  LIG1      -0.6300000000000008
     52 P          -7.0123   -5.2346   -1.2184 P.3     1  LIG1       1.0899999999999999
     53 P          -3.5619   -0.3627   -1.3635 P.3     1  LIG1          1.25
     54 P          -1.4971    1.1975    0.1465 P.3     1  LIG1       1.1899999999999995
     55 S          12.0898   -0.3183   -2.3137 S.3     1  LIG1      0.03999999999999915
     56 H          11.9490    3.3682    2.0138 H       1  LIG1       0.15000000000000002
     57 H          13.3840    2.8473    2.8975 H       1  LIG1       0.15000000000000002
     58 H          11.7957    2.8626    3.7072 H       1  LIG1       0.15000000000000002
     59 H           1.5062    2.2788   -1.9432 H       1  LIG1       0.15000000000000002
     60 H           0.9438    0.5911   -1.8889 H       1  LIG1       0.15000000000000002
     61 H           2.6093    0.9577   -2.3961 H       1  LIG1          0.14
     62 H           1.9203   -0.9807   -0.0670 H       1  LIG1          0.14
     63 H           3.1289   -0.3420    1.0821 H       1  LIG1       0.15000000000000002
     64 H           3.5623   -0.5655   -0.6164 H       1  LIG1       0.15000000000000002
     65 H          12.3756    0.4943    3.0621 H       1  LIG1       0.17000000000000004
     66 H          10.9719    1.0094    2.1570 H       1  LIG1       0.20999999999999996
     67 H           7.3930    0.3063    2.4034 H       1  LIG1       0.10999999999999999
     68 H           7.6889    1.7906    1.5442 H       1  LIG1          0.13
     69 H           5.6347   -0.3207    0.7407 H       1  LIG1       0.09999999999999998
     70 H           5.9660    1.1365   -0.1734 H       1  LIG1       0.09999999999999998
     71 H           9.9153   -1.5850   -0.7546 H       1  LIG1       0.10999999999999999
     72 H           9.1011   -1.2593   -2.2959 H       1  LIG1          0.12
     73 H          10.0847    0.9682   -2.4470 H       1  LIG1       0.18999999999999995
     74 H          10.6459    0.8983   -0.7766 H       1  LIG1       0.19999999999999996
     75 H          11.3707   -0.7043    0.6155 H       1  LIG1          0.25
     76 H          12.9725   -1.2339    1.2071 H       1  LIG1       0.20999999999999996
     77 H          -3.9553   -2.1607    1.6383 H       1  LIG1       0.18000000000000005
     78 H          -3.6835   -2.7771   -0.0155 H       1  LIG1       0.17000000000000004
     79 H           0.7988    2.5694    0.4654 H       1  LIG1       0.16000000000000003
     80 H           1.4041    1.4687    1.7238 H       1  LIG1       0.17000000000000004
     81 H         -11.5106    1.1336    2.8066 H       1  LIG1       0.17000000000000004
     82 H          -5.7185    1.1969   -0.0295 H       1  LIG1       0.22999999999999998
     83 H          -5.8323   -3.5535    0.9970 H       1  LIG1       0.17000000000000004
     84 H          -6.4078   -0.5218   -1.3804 H       1  LIG1       0.18000000000000005
     85 H          -5.6337   -2.7868   -1.6483 H       1  LIG1       0.18000000000000005
     86 H           4.2127    1.9456   -0.8085 H       1  LIG1          0.12
     87 H          -8.5174   -1.3818    0.6279 H       1  LIG1       0.17000000000000004
     88 H          -9.6362    5.2038    2.4219 H       1  LIG1          0.37
     89 H          -8.0806    4.9421    1.7552 H       1  LIG1          0.37
     90 H          -8.4643   -2.2879   -1.8435 H       1  LIG1       0.43000000000000005
     91 H           2.8877    3.7771    0.6849 H       1  LIG1           0.4
     92 H          -5.3466   -4.9597   -2.5513 H       1  LIG1       0.44999999999999996
     93 H          -3.1295    0.2730    1.2192 H       1  LIG1           0.49
@<TRIPOS>BOND
     1    41    92    1
     2    41    52    1
     3    73     8    1
     4    61     2    1
     5    55     8    1
     6    55    17    1
     7    72     7    1
     8    43    53    2
     9    59     2    1
    10    60     2    1
    11    37    90    1
    12    37    19    1
    13    44    53    1
    14     2    26    1
    15     8     7    1
    16     8    74    1
    17    85    20    1
    18    40    52    2
    19    84    19    1
    20    53    51    1
    21    53    47    1
    22     7    71    1
    23     7    28    1
    24    52    50    1
    25    52    42    1
    26    36    17    2
    27    19    20    1
    28    19    25    1
    29    50    20    1
    30    51    54    1
    31    17     9    1
    32    20    15    1
    33    86    21    1
    34    28    16   am
    35    64     3    1
    36    46    54    2
    37    38    21    1
    38    38    91    1
    39    26    21    1
    40    26     3    1
    41    26    11    1
    42    70     6    1
    43    62     3    1
    44    21    24    1
    45    82    13    1
    46    78    10    1
    47     3    63    1
    48    54    48    1
    49    54    45    1
    50    47    10    1
    51    34    14    2
    52    25    87    1
    53    25    33    1
    54    25    49    1
    55    79    11    1
    56    48    11    1
    57     9    75    1
    58     9    14    1
    59     9    76    1
    60    13    33   ar
    61    13    32   ar
    62    15    10    1
    63    15    83    1
    64    15    49    1
    65    16    35    2
    66    16     5    1
    67    10    77    1
    68    11    80    1
    69    69     6    1
    70    33    23   ar
    71     6     5    1
    72     6    29    1
    73    32    18   ar
    74    14     4    1
    75    93    45    1
    76     5    68    1
    77     5    67    1
    78    24    29   am
    79    24    39    2
    80    23    18   ar
    81    23    31   ar
    82    18    22   ar
    83    89    27    1
    84    31    12   ar
    85    56     1    1
    86    66     4    1
    87    22    27    1
    88    22    30   ar
    89     4     1    1
    90     4    65    1
    91    27    88    1
    92    12    30   ar
    93    12    81    1
    94     1    57    1
    95     1    58    1
