@<TRIPOS>MOLECULE
WIUGGJKHYQIGNH-UHFFFAOYSA-J	6045407	-2216.757475979289
 88 92 0 0 0
SMALL
MULLIKEN NwChem

@<TRIPOS>ATOM
      1 C           5.4558    1.5100    0.2308 C.3     1  LIG1      -0.5800000000000001
      2 C           0.5280   -2.6805    4.5753 C.3     1  LIG1      -0.5499999999999998
      3 C           0.2689    1.3653   -4.6725 C.3     1  LIG1      -0.5499999999999998
      4 C          -5.1934    1.0275   -0.0677 C.3     1  LIG1      -0.5800000000000001
      5 C           4.8736    0.3232   -2.7660 C.3     1  LIG1      -0.34999999999999964
      6 C           3.2903   -1.6552    3.6528 C.3     1  LIG1      -0.34999999999999964
      7 C          -2.8371    1.2138   -3.7870 C.3     1  LIG1      -0.33999999999999986
      8 C          -4.4391    1.2913    3.0156 C.3     1  LIG1      -0.33000000000000007
      9 C           4.7911    1.5201   -3.7564 C.3     1  LIG1       -0.3200000000000003
     10 C           4.6264   -1.0192    3.2316 C.3     1  LIG1       -0.33999999999999986
     11 C          -3.6043    0.5334   -4.9543 C.3     1  LIG1       -0.34999999999999964
     12 C          -5.6440    0.5675    3.6619 C.3     1  LIG1       -0.3600000000000003
     13 C           2.6410    1.1905    1.8552 C.2     1  LIG1      -0.46999999999999975
     14 C           1.8635   -0.7308   -2.7405 C.2     1  LIG1      -0.4500000000000002
     15 C          -1.7640   -0.6012    3.4516 C.2     1  LIG1      -0.41999999999999993
     16 C          -2.9832   -0.9917   -1.4052 C.2     1  LIG1      -0.4900000000000002
     17 C           4.1726    0.9102   -0.2740 C.ar    1  LIG1      0.019999999999999574
     18 C           0.7214   -1.4460    3.7457 C.ar    1  LIG1      0.009999999999999787
     19 C          -0.3092    0.4837   -3.6013 C.ar    1  LIG1      0.040000000000000036
     20 C          -4.0296    0.3550    0.6039 C.ar    1  LIG1      0.03000000000000025
     21 C           3.9287    0.3940   -1.5941 C.ar    1  LIG1      0.009999999999999787
     22 C           2.0025   -0.9326    3.3281 C.ar    1  LIG1      0.03000000000000025
     23 C          -1.6958    0.4227   -3.1981 C.ar    1  LIG1      0.009999999999999787
     24 C          -3.6724    0.4893    1.9950 C.ar    1  LIG1          0.0
     25 C           2.9958    0.7752    0.4493 C.ar    1  LIG1       0.2699999999999996
     26 C           0.4004   -0.3976   -2.8126 C.ar    1  LIG1       0.23000000000000043
     27 C          -0.2681   -0.6065    3.2652 C.ar    1  LIG1       0.2599999999999998
     28 C          -3.1031   -0.4796    0.0068 C.ar    1  LIG1       0.2699999999999996
     29 C           2.6145   -0.0350   -1.6325 C.ar    1  LIG1       0.2699999999999996
     30 C           1.7571    0.2180    2.5947 C.ar    1  LIG1       0.21999999999999975
     31 C          -1.7884   -0.4997   -2.1766 C.ar    1  LIG1       0.2699999999999996
     32 C          -2.5371   -0.2725    2.2029 C.ar    1  LIG1       0.2400000000000002
     33 C           4.9011    1.0613   -5.2500 C.2     1  LIG1       0.4900000000000002
     34 C           5.1218    0.0981    4.2132 C.2     1  LIG1       0.5099999999999998
     35 C          -5.0931    0.1096   -4.6591 C.2     1  LIG1       0.5099999999999998
     36 C          -5.3679   -0.1463    5.0409 C.2     1  LIG1       0.5099999999999998
     37 N           2.0636    0.1987   -0.3896 N.ar    1  LIG1      -0.7000000000000002
     38 N           0.3792    0.3871    2.5598 N.ar    1  LIG1      -0.6799999999999997
     39 N          -0.5032   -0.9641   -1.9193 N.ar    1  LIG1      -0.6900000000000004
     40 N          -2.2149   -0.8652    0.9938 N.ar    1  LIG1      -0.6900000000000004
     41 O           3.9961    0.2496   -5.6131 O.co2   1  LIG1      -0.6699999999999999
     42 O           5.8522    1.5259   -5.9312 O.co2   1  LIG1      -0.6799999999999997
     43 O           5.2451   -0.2629    5.4121 O.co2   1  LIG1      -0.6799999999999997
     44 O           5.3724    1.2336    3.7137 O.co2   1  LIG1      -0.6400000000000006
     45 O          -5.4520    0.0422   -3.4497 O.co2   1  LIG1      -0.6300000000000008
     46 O          -5.7745   -0.1441   -5.6854 O.co2   1  LIG1      -0.6799999999999997
     47 O          -4.2358    0.0300    5.5673 O.co2   1  LIG1      -0.6500000000000004
     48 O          -6.3498   -0.7954    5.4889 O.co2   1  LIG1      -0.6999999999999993
     49 H           5.5299    1.4603    1.3250 H       1  LIG1       0.18000000000000005
     50 H           5.5597    2.5654   -0.0705 H       1  LIG1          0.14
     51 H           6.3242    0.9844   -0.1919 H       1  LIG1          0.14
     52 H           0.9526   -3.5712    4.0863 H       1  LIG1       0.15000000000000002
     53 H           1.0291   -2.5981    5.5506 H       1  LIG1       0.15000000000000002
     54 H          -0.5338   -2.8774    4.7638 H       1  LIG1       0.16000000000000003
     55 H          -0.3370    1.3167   -5.5876 H       1  LIG1       0.15000000000000002
     56 H           0.2893    2.4214   -4.3643 H       1  LIG1       0.15000000000000002
     57 H           1.2968    1.0813   -4.9324 H       1  LIG1       0.15000000000000002
     58 H          -6.1394    0.7873    0.4413 H       1  LIG1       0.15000000000000002
     59 H          -5.0937    2.1248   -0.0281 H       1  LIG1       0.15000000000000002
     60 H          -5.2894    0.7439   -1.1218 H       1  LIG1       0.18000000000000005
     61 H           5.9077    0.2168   -2.4063 H       1  LIG1          0.13
     62 H           4.6494   -0.5773   -3.3479 H       1  LIG1          0.14
     63 H           3.3566   -1.8096    4.7409 H       1  LIG1          0.13
     64 H           3.2141   -2.6673    3.2143 H       1  LIG1          0.13
     65 H          -3.5733    1.4243   -3.0031 H       1  LIG1          0.14
     66 H          -2.4401    2.1840   -4.1230 H       1  LIG1          0.13
     67 H          -3.7759    1.5811    3.8383 H       1  LIG1          0.14
     68 H          -4.7815    2.2172    2.5262 H       1  LIG1          0.12
     69 H           3.8097    1.9952   -3.6316 H       1  LIG1          0.12
     70 H           5.5561    2.2723   -3.5255 H       1  LIG1       0.10999999999999999
     71 H           5.3871   -1.8146    3.2743 H       1  LIG1          0.13
     72 H           4.5851   -0.6663    2.1966 H       1  LIG1          0.13
     73 H          -3.6308    1.1822   -5.8405 H       1  LIG1          0.12
     74 H          -3.0734   -0.3750   -5.2730 H       1  LIG1          0.14
     75 H          -6.4559    1.2882    3.8541 H       1  LIG1          0.13
     76 H          -6.0684   -0.1752    2.9741 H       1  LIG1          0.13
     77 H           3.5622    1.3576    2.4262 H       1  LIG1       0.19999999999999996
     78 H           2.1202    2.1661    1.8353 H       1  LIG1       0.15000000000000002
     79 H           2.3505   -0.4828   -3.6920 H       1  LIG1       0.17000000000000004
     80 H           1.9703   -1.8276   -2.6301 H       1  LIG1       0.16000000000000003
     81 H          -2.0903    0.0825    4.2447 H       1  LIG1       0.18000000000000005
     82 H          -2.0666   -1.5890    3.8263 H       1  LIG1       0.16000000000000003
     83 H          -3.8812   -0.7198   -1.9741 H       1  LIG1       0.19999999999999996
     84 H          -2.9619   -2.0970   -1.3802 H       1  LIG1       0.15000000000000002
     85 H           1.0966    0.0351   -0.1496 H       1  LIG1          0.35
     86 H          -0.0990    1.1568    2.1145 H       1  LIG1          0.35
     87 H          -0.3072   -1.8144   -1.4102 H       1  LIG1          0.36
     88 H          -1.3518   -1.3643    0.8407 H       1  LIG1           0.35
@<TRIPOS>BOND
     1    42    33   ar
     2    73    11    1
     3    46    35   ar
     4    41    33   ar
     5    55     3    1
     6    74    11    1
     7    33     9    1
     8    11    35    1
     9    11     7    1
    10    57     3    1
    11     3    56    1
    12     3    19    1
    13    35    45   ar
    14    66     7    1
    15     7    23    1
    16     7    65    1
    17     9    69    1
    18     9    70    1
    19     9     5    1
    20    79    14    1
    21    19    23   ar
    22    19    26   ar
    23    62     5    1
    24    23    31   ar
    25    26    14    1
    26    26    39   ar
    27     5    61    1
    28     5    21    1
    29    14    80    1
    30    14    29    2
    31    31    39   ar
    32    31    16    2
    33    83    16    1
    34    39    87    1
    35    29    21   ar
    36    29    37   ar
    37    21    17   ar
    38    16    84    1
    39    16    28    1
    40    60     4    1
    41    37    85    1
    42    37    25   ar
    43    17     1    1
    44    17    25   ar
    45    51     1    1
    46    50     1    1
    47     4    59    1
    48     4    58    1
    49     4    20    1
    50    28    20   ar
    51    28    40   ar
    52     1    49    1
    53    25    13    2
    54    20    24   ar
    55    88    40    1
    56    40    32   ar
    57    78    13    1
    58    13    77    1
    59    13    30    1
    60    24    32   ar
    61    24     8    1
    62    86    38    1
    63    72    10    1
    64    32    15    1
    65    68     8    1
    66    38    30   ar
    67    38    27   ar
    68    30    22   ar
    69    76    12    1
    70     8    12    1
    71     8    67    1
    72    64     6    1
    73    10    71    1
    74    10     6    1
    75    10    34    1
    76    27    15    2
    77    27    18   ar
    78    22     6    1
    79    22    18   ar
    80    15    82    1
    81    15    81    1
    82     6    63    1
    83    12    75    1
    84    12    36    1
    85    44    34   ar
    86    18     2    1
    87    52     2    1
    88    34    43   ar
    89     2    54    1
    90     2    53    1
    91    36    48   ar
    92    36    47   ar
