@<TRIPOS>MOLECULE
WJXSWCUQABXPFS-UHFFFAOYSA-M	6045408	-550.8365775911058
 17 17 0 0 0
SMALL
MULLIKEN NwChem

@<TRIPOS>ATOM
      1 C          -2.2685   -0.5627   -0.0154 C.2     1  LIG1      -0.17999999999999972
      2 C          -1.1042   -1.2909    0.1093 C.2     1  LIG1      -0.2599999999999998
      3 C          -2.2559    0.8400   -0.1749 C.3     1  LIG1       -0.28000000000000025
      4 C           0.1539   -0.6032    0.0851 C.2     1  LIG1       0.03000000000000025
      5 C          -1.0584    1.5941   -0.2070 C.2     1  LIG1       0.3600000000000003
      6 C           0.1782    0.8031   -0.0438 C.2     1  LIG1       0.13999999999999968
      7 C           1.4038   -1.3310    0.1511 C.2     1  LIG1       0.5199999999999996
      8 N           1.3059    1.5797   -0.0168 N.pl3   1  LIG1      -0.8200000000000003
      9 O          -0.9578    2.8552   -0.3735 O.2     1  LIG1      -0.7599999999999998
     10 O           2.5535   -0.8802    0.0723 O.2     1  LIG1      -0.5800000000000001
     11 O           1.2676   -2.6982    0.3102 O.3     1  LIG1      -0.6199999999999992
     12 H          -3.2278   -1.0827    0.0013 H       1  LIG1          0.12
     13 H          -1.1172   -2.3696    0.2170 H       1  LIG1          0.13
     14 H          -3.1887    1.3897   -0.2919 H       1  LIG1       0.08999999999999997
     15 H           1.0888    2.5201   -0.3424 H       1  LIG1       0.32999999999999996
     16 H           2.1882    1.1346   -0.2236 H       1  LIG1          0.35
     17 H           2.1909   -3.0060    0.3183 H       1  LIG1       0.43000000000000005
@<TRIPOS>BOND
     1     9     5    2
     2    15     8    1
     3    14     3    1
     4    16     8    1
     5     5     3    1
     6     5     6    1
     7     3     1    1
     8     6     8    1
     9     6     4    2
    10     1    12    1
    11     1     2    2
    12    10     7    2
    13     4     2    1
    14     4     7    1
    15     2    13    1
    16     7    11    1
    17    11    17    1
