@<TRIPOS>MOLECULE
WLJVXDMOQOGPHL-UHFFFAOYSA-M	11083941	-459.5667956551143
 17 17 0 0 0
SMALL
MULLIKEN NwChem

@<TRIPOS>ATOM
      1 C           2.8625    0.2118    0.5303 C.ar    1  LIG1      -0.16000000000000014
      2 C           2.4395    0.6305   -0.7325 C.ar    1  LIG1      -0.15000000000000036
      3 C           1.9014   -0.0601    1.5113 C.ar    1  LIG1      -0.16000000000000014
      4 C           1.0768    0.7852   -1.0011 C.ar    1  LIG1      -0.21999999999999975
      5 C           0.5431    0.0932    1.2406 C.ar    1  LIG1      -0.20000000000000018
      6 C          -1.3625    0.6847   -0.3169 C.3     1  LIG1       -0.4400000000000004
      7 C           0.1006    0.5276   -0.0250 C.ar    1  LIG1      0.16000000000000014
      8 C          -2.2264   -0.6566   -0.1423 C.2     1  LIG1       0.5199999999999996
      9 O          -2.1068   -1.2074    0.9791 O.co2   1  LIG1      -0.6500000000000004
     10 O          -2.9358   -0.9525   -1.1264 O.co2   1  LIG1      -0.6600000000000001
     11 H           3.9228    0.0928    0.7472 H       1  LIG1          0.14
     12 H           3.1713    0.8387   -1.5123 H       1  LIG1          0.14
     13 H           2.2175   -0.4002    2.4968 H       1  LIG1          0.14
     14 H           0.7569    1.1125   -1.9894 H       1  LIG1          0.14
     15 H          -0.2154   -0.1674    1.9708 H       1  LIG1          0.13
     16 H          -1.5147    1.0801   -1.3263 H       1  LIG1          0.12
     17 H          -1.7997    1.3993    0.3952 H       1  LIG1       0.15000000000000002
@<TRIPOS>BOND
     1    14     4    1
     2    12     2    1
     3    16     6    1
     4    10     8   ar
     5     4     2   ar
     6     4     7   ar
     7     2     1   ar
     8     6     8    1
     9     6     7    1
    10     6    17    1
    11     8     9   ar
    12     7     5   ar
    13     1    11    1
    14     1     3   ar
    15     5     3   ar
    16     5    15    1
    17     3    13    1
