@<TRIPOS>MOLECULE
WPYMKLBDIGXBTP-UHFFFAOYSA-M	6045414	-420.28431034433487
 14 14 0 0 0
SMALL
MULLIKEN NwChem

@<TRIPOS>ATOM
      1 C          -2.5353   -0.1340    0.1021 C.ar    1  LIG1      -0.16000000000000014
      2 C          -1.8952    1.1095    0.0666 C.ar    1  LIG1      -0.16000000000000014
      3 C          -1.7670   -1.3029    0.0819 C.ar    1  LIG1      -0.16000000000000014
      4 C          -0.5012    1.1781    0.0109 C.ar    1  LIG1      -0.20999999999999996
      5 C          -0.3737   -1.2241    0.0262 C.ar    1  LIG1      -0.20999999999999996
      6 C           0.2780    0.0148   -0.0105 C.ar    1  LIG1       0.05999999999999961
      7 C           1.8319    0.0968   -0.0743 C.2     1  LIG1       0.46999999999999975
      8 O           2.3019    1.2619   -0.1033 O.co2   1  LIG1      -0.6699999999999999
      9 O           2.4221   -1.0129   -0.0894 O.co2   1  LIG1      -0.6699999999999999
     10 H          -3.6223   -0.1915    0.1451 H       1  LIG1       0.15000000000000002
     11 H          -2.4885    2.0241    0.0824 H       1  LIG1       0.15000000000000002
     12 H          -2.2600   -2.2750    0.1096 H       1  LIG1       0.15000000000000002
     13 H           0.0297    2.1258   -0.0180 H       1  LIG1          0.13
     14 H           0.2547   -2.1105    0.0090 H       1  LIG1           0.12
@<TRIPOS>BOND
     1     8     7   ar
     2     9     7   ar
     3     7     6    1
     4    13     4    1
     5     6     4   ar
     6     6     5   ar
     7    14     5    1
     8     4     2   ar
     9     5     3   ar
    10     2    11    1
    11     2     1   ar
    12     3     1   ar
    13     3    12    1
    14     1    10    1
