@<TRIPOS>MOLECULE
WQZGKKKJIJFFOK-PQMKYFCFSA-N	6045423	-687.0024810216194
 24 24 0 0 0
SMALL
MULLIKEN NwChem

@<TRIPOS>ATOM
      1 C          -1.2762   -1.1034    1.5785 C.3     1  LIG1       -0.09999999999999964
      2 C          -1.3280   -0.6073    0.1028 C.3     1  LIG1       0.07000000000000028
      3 C          -0.2381   -1.2010   -0.8118 C.3     1  LIG1       0.11000000000000032
      4 C           1.1262   -0.5491   -0.5506 C.3     1  LIG1       0.07000000000000028
      5 C           0.9774    0.9684   -0.6583 C.3     1  LIG1       0.05999999999999961
      6 C          -0.1323    1.4726    0.2811 C.3     1  LIG1       0.34999999999999964
      7 O          -0.8113   -2.4343    1.7270 O.3     1  LIG1      -0.6600000000000001
      8 O          -0.5030   -0.9417   -2.1867 O.3     1  LIG1      -0.6699999999999999
      9 O           1.6754   -0.9384    0.7262 O.3     1  LIG1      -0.6799999999999997
     10 O           2.1887    1.6638   -0.3805 O.3     1  LIG1      -0.6699999999999999
     11 O          -0.3789    2.8322    0.0855 O.3     1  LIG1      -0.6699999999999999
     12 O          -1.3629    0.8223    0.0388 O.3     1  LIG1      -0.5199999999999996
     13 H          -2.2889   -1.0804    1.9892 H       1  LIG1       0.18000000000000005
     14 H          -0.6909   -0.3982    2.1887 H       1  LIG1       0.16000000000000003
     15 H          -2.2940   -0.9149   -0.3166 H       1  LIG1       0.18000000000000005
     16 H          -0.1721   -2.2805   -0.6243 H       1  LIG1       0.15000000000000002
     17 H           1.8458   -0.9079   -1.2908 H       1  LIG1       0.18000000000000005
     18 H           0.6756    1.2202   -1.6775 H       1  LIG1       0.17000000000000004
     19 H           0.1862    1.3062    1.3345 H       1  LIG1          0.12
     20 H           0.1424   -2.4294    1.5347 H       1  LIG1       0.42000000000000004
     21 H          -1.4306   -1.1562   -2.3694 H       1  LIG1       0.43999999999999995
     22 H           1.2376   -0.4245    1.4233 H       1  LIG1       0.43999999999999995
     23 H           2.6602    1.1541    0.3004 H       1  LIG1       0.43000000000000005
     24 H           0.4960    3.2437   -0.0236 H       1  LIG1       0.43000000000000005
@<TRIPOS>BOND
     1    21     8    1
     2     8     3    1
     3    18     5    1
     4    17     4    1
     5     3    16    1
     6     3     4    1
     7     3     2    1
     8     5     4    1
     9     5    10    1
    10     5     6    1
    11     4     9    1
    12    10    23    1
    13    15     2    1
    14    24    11    1
    15    12     2    1
    16    12     6    1
    17    11     6    1
    18     2     1    1
    19     6    19    1
    20     9    22    1
    21    20     7    1
    22     1     7    1
    23     1    13    1
    24     1    14    1
