@<TRIPOS>MOLECULE
WQZGKKKJIJFFOK-DGPNFKTASA-N	6045419	-687.0132598862727
 24 24 0 0 0
SMALL
MULLIKEN NwChem

@<TRIPOS>ATOM
      1 C           0.8152   -2.0386   -0.7653 C.3     1  LIG1       -0.05999999999999961
      2 C          -0.2067   -0.9368   -1.1474 C.3     1  LIG1       0.07000000000000028
      3 C           0.4618    0.4115   -1.4226 C.3     1  LIG1       0.11000000000000032
      4 C           0.8017    1.1799   -0.1250 C.3     1  LIG1       0.07000000000000028
      5 C          -0.4061    1.2275    0.8170 C.3     1  LIG1       0.1200000000000001
      6 C          -0.9425   -0.1955    1.0301 C.3     1  LIG1       0.3099999999999996
      7 O           0.2287   -3.0600    0.0435 O.3     1  LIG1      -0.6600000000000001
      8 O          -0.4281    1.1868   -2.2049 O.3     1  LIG1      -0.6899999999999995
      9 O           1.1359    2.5290   -0.4703 O.3     1  LIG1      -0.6699999999999999
     10 O          -0.1025    1.8280    2.0610 O.3     1  LIG1      -0.6799999999999997
     11 O           0.0510   -0.8836    1.7718 O.3     1  LIG1      -0.6899999999999995
     12 O          -1.2647   -0.8373   -0.1868 O.3     1  LIG1      -0.5099999999999998
     13 H           1.6381   -1.6320   -0.1722 H       1  LIG1       0.17000000000000004
     14 H           1.2383   -2.4657   -1.6861 H       1  LIG1       0.16000000000000003
     15 H          -0.7271   -1.2358   -2.0634 H       1  LIG1       0.17000000000000004
     16 H           1.4020    0.2241   -1.9780 H       1  LIG1       0.15000000000000002
     17 H           1.6317    0.6938    0.4027 H       1  LIG1       0.16000000000000003
     18 H          -1.1874    1.8322    0.3486 H       1  LIG1       0.16000000000000003
     19 H          -1.8892   -0.1647    1.5838 H       1  LIG1       0.15000000000000002
     20 H          -0.6883   -3.1783   -0.2551 H       1  LIG1       0.43999999999999995
     21 H          -0.1458    2.1099   -2.0666 H       1  LIG1       0.42000000000000004
     22 H           2.0581    2.5458   -0.7705 H       1  LIG1       0.43999999999999995
     23 H           0.4121    1.1697    2.5591 H       1  LIG1       0.43000000000000005
     24 H          -0.0238   -1.8359    1.5559 H       1  LIG1       0.43000000000000005
@<TRIPOS>BOND
     1     8    21    1
     2     8     3    1
     3    15     2    1
     4    16     3    1
     5    14     1    1
     6     3     2    1
     7     3     4    1
     8     2     1    1
     9     2    12    1
    10    22     9    1
    11     1    13    1
    12     1     7    1
    13     9     4    1
    14    20     7    1
    15    12     6    1
    16     4    17    1
    17     4     5    1
    18    18     5    1
    19     5     6    1
    20     5    10    1
    21     6    19    1
    22     6    11    1
    23    24    11    1
    24    10    23    1
