@<TRIPOS>MOLECULE
WQZGKKKJIJFFOK-TVIMKVIFSA-N	6045425	-687.0131793867245
 24 24 0 0 0
SMALL
MULLIKEN NwChem

@<TRIPOS>ATOM
      1 C           2.0229    1.2016   -0.7514 C.3     1  LIG1       -0.040000000000000036
      2 C           1.2602    0.7091    0.4860 C.3     1  LIG1       0.05999999999999961
      3 C           1.1865   -0.8156    0.6094 C.3     1  LIG1       0.1200000000000001
      4 C           0.1088   -1.3917   -0.3163 C.3     1  LIG1       0.08999999999999986
      5 C          -1.2241   -0.6740   -0.0926 C.3     1  LIG1       0.08000000000000007
      6 C          -1.0432    0.8222   -0.3379 C.3     1  LIG1       0.33999999999999986
      7 O           2.0088    2.6153   -0.8117 O.3     1  LIG1      -0.6799999999999997
      8 O           0.8818   -1.1350    1.9565 O.3     1  LIG1      -0.6799999999999997
      9 O          -0.0185   -2.7762   -0.0234 O.3     1  LIG1      -0.6799999999999997
     10 O          -2.2446   -1.2788   -0.8818 O.3     1  LIG1      -0.6699999999999999
     11 O          -2.2381    1.4707   -0.0518 O.3     1  LIG1      -0.6600000000000001
     12 O          -0.0399    1.3372    0.5370 O.3     1  LIG1      -0.5399999999999991
     13 H           1.6025    0.7605   -1.6716 H       1  LIG1       0.15000000000000002
     14 H           3.0686    0.8809   -0.6885 H       1  LIG1       0.17000000000000004
     15 H           1.7648    1.0939    1.3765 H       1  LIG1       0.17000000000000004
     16 H           2.1647   -1.2380    0.3230 H       1  LIG1       0.15000000000000002
     17 H           0.4151   -1.2520   -1.3685 H       1  LIG1       0.15000000000000002
     18 H          -1.5291   -0.8001    0.9487 H       1  LIG1       0.16000000000000003
     19 H          -0.7377    0.9969   -1.3905 H       1  LIG1          0.14
     20 H           1.1320    2.8799   -0.4846 H       1  LIG1       0.42000000000000004
     21 H           0.5994   -2.0668    1.9422 H       1  LIG1       0.43000000000000005
     22 H          -0.9088   -3.0291   -0.3261 H       1  LIG1       0.43000000000000005
     23 H          -2.1145   -1.0120   -1.8071 H       1  LIG1       0.43999999999999995
     24 H          -2.0771    2.4263   -0.1145 H       1  LIG1       0.43999999999999995
@<TRIPOS>BOND
     1    23    10    1
     2    13     1    1
     3    19     6    1
     4    17     4    1
     5    10     5    1
     6     7     1    1
     7     7    20    1
     8     1    14    1
     9     1     2    1
    10     6     5    1
    11     6    11    1
    12     6    12    1
    13    22     9    1
    14     4     5    1
    15     4     9    1
    16     4     3    1
    17    24    11    1
    18     5    18    1
    19    16     3    1
    20     2    12    1
    21     2     3    1
    22     2    15    1
    23     3     8    1
    24    21     8    1
