@<TRIPOS>MOLECULE
WQZGKKKJIJFFOK-PHYPRBDBSA-N	6045422	-687.0108114938812
 24 24 0 0 0
SMALL
MULLIKEN NwChem

@<TRIPOS>ATOM
      1 C           1.8278   -1.2849   -0.5349 C.3     1  LIG1       -0.08000000000000007
      2 C           0.9700   -0.7713    0.6241 C.3     1  LIG1       0.08999999999999986
      3 C          -0.5215   -1.2155    0.6151 C.3     1  LIG1       0.11000000000000032
      4 C          -1.4204   -0.3224   -0.2536 C.3     1  LIG1       0.05999999999999961
      5 C          -1.2037    1.1569    0.1243 C.3     1  LIG1       0.08000000000000007
      6 C           0.2812    1.5048    0.0307 C.3     1  LIG1       0.3600000000000003
      7 O           1.4782   -0.7581   -1.8303 O.3     1  LIG1      -0.6600000000000001
      8 O          -0.6438   -2.5742    0.2255 O.3     1  LIG1      -0.6799999999999997
      9 O          -1.2666   -0.6026   -1.6383 O.3     1  LIG1      -0.7100000000000009
     10 O          -1.6254    1.3778    1.4636 O.3     1  LIG1      -0.6699999999999999
     11 O           0.4818    2.8036    0.4854 O.3     1  LIG1      -0.6699999999999999
     12 O           1.1053    0.6448    0.8183 O.3     1  LIG1      -0.5399999999999991
     13 H           1.7077   -2.3686   -0.6025 H       1  LIG1       0.17000000000000004
     14 H           2.8799   -1.0606   -0.3226 H       1  LIG1       0.17000000000000004
     15 H           1.4211   -1.2136    1.5212 H       1  LIG1       0.17000000000000004
     16 H          -0.8773   -1.1254    1.6455 H       1  LIG1       0.16000000000000003
     17 H          -2.4628   -0.5808   -0.0285 H       1  LIG1       0.16000000000000003
     18 H          -1.7414    1.7999   -0.5879 H       1  LIG1       0.16000000000000003
     19 H           0.5720    1.4162   -1.0316 H       1  LIG1          0.12
     20 H           1.9091    0.1039   -1.9272 H       1  LIG1       0.44999999999999996
     21 H          -0.8648   -2.5496   -0.7240 H       1  LIG1       0.42000000000000004
     22 H          -0.3124   -0.5615   -1.8685 H       1  LIG1       0.43999999999999995
     23 H          -2.5925    1.3150    1.4784 H       1  LIG1       0.43999999999999995
     24 H           1.4364    2.9074    0.6282 H       1  LIG1       0.43000000000000005
@<TRIPOS>BOND
     1    20     7    1
     2    22     9    1
     3     7     1    1
     4     9     4    1
     5    19     6    1
     6    21     8    1
     7    13     1    1
     8    18     5    1
     9     1    14    1
    10     1     2    1
    11     4    17    1
    12     4     5    1
    13     4     3    1
    14     6     5    1
    15     6    11    1
    16     6    12    1
    17     5    10    1
    18     8     3    1
    19    11    24    1
    20     3     2    1
    21     3    16    1
    22     2    12    1
    23     2    15    1
    24    10    23    1
