@<TRIPOS>MOLECULE
WQZGKKKJIJFFOK-RWOPYEJCSA-N	6045424	-687.0118789133589
 24 24 0 0 0
SMALL
MULLIKEN NwChem

@<TRIPOS>ATOM
      1 C          -1.3525   -1.1659    1.3787 C.3     1  LIG1       -0.07000000000000028
      2 C          -1.3198   -0.5947   -0.0535 C.3     1  LIG1       0.09999999999999964
      3 C          -0.1393   -1.0709   -0.9074 C.3     1  LIG1       0.11000000000000032
      4 C           1.1316   -0.2487   -0.6732 C.3     1  LIG1       0.07000000000000028
      5 C           0.8323    1.2523   -0.7666 C.3     1  LIG1       0.09999999999999964
      6 C          -0.3306    1.6312    0.1731 C.3     1  LIG1       0.28000000000000025
      7 O          -1.4838   -2.5838    1.3586 O.3     1  LIG1      -0.6600000000000001
      8 O          -0.5383   -0.9287   -2.2706 O.3     1  LIG1      -0.6799999999999997
      9 O           1.6597   -0.5674    0.6256 O.3     1  LIG1      -0.6699999999999999
     10 O           2.0102    1.9809   -0.4225 O.3     1  LIG1      -0.6799999999999997
     11 O           0.1277    1.6529    1.5192 O.3     1  LIG1      -0.6799999999999997
     12 O          -1.4659    0.8330   -0.0477 O.3     1  LIG1      -0.5099999999999998
     13 H          -2.2400   -0.7578    1.8709 H       1  LIG1       0.16000000000000003
     14 H          -0.4805   -0.8595    1.9632 H       1  LIG1       0.15000000000000002
     15 H          -2.2205   -0.9593   -0.5557 H       1  LIG1       0.16000000000000003
     16 H           0.0566   -2.1252   -0.6634 H       1  LIG1       0.15000000000000002
     17 H           1.8775   -0.5133   -1.4393 H       1  LIG1       0.16000000000000003
     18 H           0.5440    1.4900   -1.7949 H       1  LIG1       0.16000000000000003
     19 H          -0.6655    2.6518   -0.0280 H       1  LIG1       0.17000000000000004
     20 H          -0.5925   -2.9617    1.3503 H       1  LIG1       0.43999999999999995
     21 H           0.1392   -1.3429   -2.8281 H       1  LIG1       0.43999999999999995
     22 H           2.4640   -0.0235    0.7046 H       1  LIG1       0.43000000000000005
     23 H           1.8347    2.3620    0.4566 H       1  LIG1       0.43000000000000005
     24 H           0.5890    0.8050    1.6654 H       1  LIG1       0.43000000000000005
@<TRIPOS>BOND
     1    21     8    1
     2     8     3    1
     3    18     5    1
     4    17     4    1
     5     3     4    1
     6     3    16    1
     7     3     2    1
     8     5     4    1
     9     5    10    1
    10     5     6    1
    11     4     9    1
    12    15     2    1
    13    10    23    1
    14     2    12    1
    15     2     1    1
    16    12     6    1
    17    19     6    1
    18     6    11    1
    19     9    22    1
    20    20     7    1
    21     7     1    1
    22     1    13    1
    23     1    14    1
    24    11    24    1
