@<TRIPOS>MOLECULE
WQZGKKKJIJFFOK-DVKNGEFBSA-N	6045420	-687.0077814298478
 24 24 0 0 0
SMALL
MULLIKEN NwChem

@<TRIPOS>ATOM
      1 C           0.5154   -2.1181   -0.8141 C.3     1  LIG1       -0.04999999999999982
      2 C           0.0467   -0.6896   -1.1179 C.3     1  LIG1       0.05999999999999961
      3 C           1.1004    0.4327   -1.0165 C.3     1  LIG1       0.08999999999999986
      4 C           1.3495    0.8910    0.4388 C.3     1  LIG1       0.08000000000000007
      5 C           0.0069    1.1447    1.1442 C.3     1  LIG1       0.08999999999999986
      6 C          -0.9225   -0.0719    1.0150 C.3     1  LIG1       0.3099999999999996
      7 O          -0.5470   -3.0333   -0.9755 O.3     1  LIG1      -0.6699999999999999
      8 O           0.7185    1.5382   -1.8179 O.3     1  LIG1      -0.6799999999999997
      9 O           2.1647    0.0052    1.1980 O.3     1  LIG1      -0.6799999999999997
     10 O          -0.6164    2.2698    0.5303 O.3     1  LIG1      -0.6699999999999999
     11 O          -2.2189    0.2606    1.4756 O.3     1  LIG1      -0.6600000000000001
     12 O          -1.1386   -0.4107   -0.3331 O.3     1  LIG1      -0.5199999999999996
     13 H           0.9407   -2.2017    0.2047 H       1  LIG1          0.14
     14 H           1.3132   -2.3985   -1.5103 H       1  LIG1       0.18000000000000005
     15 H          -0.3253   -0.6836   -2.1457 H       1  LIG1       0.18000000000000005
     16 H           2.0471    0.0583   -1.4235 H       1  LIG1       0.17000000000000004
     17 H           1.9005    1.8338    0.3927 H       1  LIG1       0.17000000000000004
     18 H           0.1968    1.3332    2.2129 H       1  LIG1       0.15000000000000002
     19 H          -0.5165   -0.9256    1.5868 H       1  LIG1       0.16000000000000003
     20 H          -1.3380   -2.5843   -0.6287 H       1  LIG1       0.43000000000000005
     21 H           0.0212    2.0041   -1.3173 H       1  LIG1       0.43000000000000005
     22 H           1.8013   -0.8912    1.1468 H       1  LIG1       0.43000000000000005
     23 H          -1.5740    2.1565    0.6778 H       1  LIG1       0.43000000000000005
     24 H          -2.2108    0.2266    2.4452 H       1  LIG1       0.44999999999999996
@<TRIPOS>BOND
     1    15     2    1
     2     8    21    1
     3     8     3    1
     4    14     1    1
     5    16     3    1
     6     2     3    1
     7     2     1    1
     8     2    12    1
     9     3     4    1
    10     7     1    1
    11     7    20    1
    12     1    13    1
    13    12     6    1
    14    17     4    1
    15     4     5    1
    16     4     9    1
    17    10    23    1
    18    10     5    1
    19     6     5    1
    20     6    11    1
    21     6    19    1
    22     5    18    1
    23    22     9    1
    24    11    24    1
