@<TRIPOS>MOLECULE
WQZGKKKJIJFFOK-VFUOTHLCSA-N	6045426	-687.017982444048
 24 24 0 0 0
SMALL
MULLIKEN NwChem

@<TRIPOS>ATOM
      1 C           0.0710   -2.2170    1.3283 C.3     1  LIG1       -0.05999999999999961
      2 C           0.4939   -0.9214    0.6176 C.3     1  LIG1       0.09999999999999964
      3 C          -0.1436   -0.8138   -0.7756 C.3     1  LIG1       0.08000000000000007
      4 C           0.0932    0.5853   -1.3772 C.3     1  LIG1       0.08000000000000007
      5 C          -0.3209    1.6804   -0.3764 C.3     1  LIG1       0.08000000000000007
      6 C           0.3504    1.4483    0.9916 C.3     1  LIG1       0.3200000000000003
      7 O           0.0810   -3.3380    0.4559 O.3     1  LIG1      -0.6699999999999999
      8 O          -1.5333   -1.1214   -0.7506 O.3     1  LIG1      -0.6799999999999997
      9 O           1.4805    0.8125   -1.6633 O.3     1  LIG1      -0.6699999999999999
     10 O          -1.7341    1.6323   -0.1547 O.3     1  LIG1      -0.6600000000000001
     11 O           1.7200    1.7285    0.9442 O.3     1  LIG1      -0.6799999999999997
     12 O           0.0497    0.1422    1.4630 O.3     1  LIG1      -0.5299999999999994
     13 H          -0.9224   -2.0472    1.7639 H       1  LIG1       0.15000000000000002
     14 H           0.7641   -2.4340    2.1456 H       1  LIG1       0.16000000000000003
     15 H           1.5869   -0.8849    0.5057 H       1  LIG1          0.14
     16 H           0.3191   -1.5675   -1.4245 H       1  LIG1       0.17000000000000004
     17 H          -0.5099    0.6773   -2.2942 H       1  LIG1       0.16000000000000003
     18 H          -0.0086    2.6636   -0.7523 H       1  LIG1       0.17000000000000004
     19 H          -0.0978    2.1128    1.7336 H       1  LIG1       0.16000000000000003
     20 H          -0.7160   -3.2485   -0.0928 H       1  LIG1       0.43000000000000005
     21 H          -1.9445   -0.4290   -0.1983 H       1  LIG1       0.43000000000000005
     22 H           1.8172    0.0670   -2.1854 H       1  LIG1       0.44999999999999996
     23 H          -2.1766    1.8974   -0.9768 H       1  LIG1       0.44999999999999996
     24 H           2.0596    1.4137    0.0859 H       1  LIG1       0.43999999999999995
@<TRIPOS>BOND
     1    17     4    1
     2    22     9    1
     3     9     4    1
     4    16     3    1
     5     4     3    1
     6     4     5    1
     7    23    10    1
     8     3     8    1
     9     3     2    1
    10    18     5    1
    11     8    21    1
    12     5    10    1
    13     5     6    1
    14    20     7    1
    15    24    11    1
    16     7     1    1
    17    15     2    1
    18     2     1    1
    19     2    12    1
    20    11     6    1
    21     6    12    1
    22     6    19    1
    23     1    13    1
    24     1    14    1
