@<TRIPOS>MOLECULE
WQZGKKKJIJFFOK-FPRJBGLDSA-N	6045421	-687.0126217784298
 24 24 0 0 0
SMALL
MULLIKEN NwChem

@<TRIPOS>ATOM
      1 C          -0.1901    2.1721   -0.6963 C.3     1  LIG1       -0.07000000000000028
      2 C          -0.8000    0.7795   -0.8960 C.3     1  LIG1       0.07000000000000028
      3 C          -1.3592    0.0760    0.3757 C.3     1  LIG1       0.11000000000000032
      4 C          -0.3276   -0.7846    1.1107 C.3     1  LIG1       0.07000000000000028
      5 C           0.3465   -1.7383    0.1106 C.3     1  LIG1       0.07000000000000028
      6 C           0.9808   -0.9227   -1.0243 C.3     1  LIG1       0.33000000000000007
      7 O           1.0425    2.2081    0.0241 O.3     1  LIG1      -0.6699999999999999
      8 O          -1.9734    1.0054    1.2566 O.3     1  LIG1      -0.6699999999999999
      9 O           0.6296    0.0394    1.7986 O.3     1  LIG1      -0.6999999999999993
     10 O          -0.6032   -2.6147   -0.4776 O.3     1  LIG1      -0.6699999999999999
     11 O           2.1041   -0.2385   -0.4591 O.3     1  LIG1      -0.6999999999999993
     12 O           0.0712   -0.0717   -1.6697 O.3     1  LIG1      -0.5199999999999996
     13 H          -0.9432    2.8099   -0.2162 H       1  LIG1       0.16000000000000003
     14 H           0.0361    2.5850   -1.6829 H       1  LIG1       0.17000000000000004
     15 H          -1.6588    0.9453   -1.5573 H       1  LIG1       0.17000000000000004
     16 H          -2.1470   -0.6041    0.0398 H       1  LIG1       0.16000000000000003
     17 H          -0.8597   -1.3616    1.8797 H       1  LIG1       0.17000000000000004
     18 H           1.1548   -2.2916    0.6121 H       1  LIG1       0.17000000000000004
     19 H           1.3310   -1.5954   -1.8133 H       1  LIG1       0.16000000000000003
     20 H           0.8746    1.8078    0.8993 H       1  LIG1       0.43000000000000005
     21 H          -1.2781    1.3236    1.8573 H       1  LIG1       0.43000000000000005
     22 H           1.4708   -0.0665    1.3021 H       1  LIG1       0.43999999999999995
     23 H          -0.9234   -3.2171    0.2117 H       1  LIG1       0.43999999999999995
     24 H           1.9656    0.7258   -0.6040 H       1  LIG1       0.43000000000000005
@<TRIPOS>BOND
     1    19     6    1
     2    14     1    1
     3    12     6    1
     4    12     2    1
     5    15     2    1
     6     6    11    1
     7     6     5    1
     8     2     1    1
     9     2     3    1
    10     1    13    1
    11     1     7    1
    12    24    11    1
    13    10     5    1
    14    10    23    1
    15     7    20    1
    16    16     3    1
    17     5    18    1
    18     5     4    1
    19     3     4    1
    20     3     8    1
    21     4     9    1
    22     4    17    1
    23     8    21    1
    24    22     9    1
