@<TRIPOS>MOLECULE
WRBRCYPPGUCRHW-UHFFFAOYSA-M	6045428	-361.3107336921433
 13 12 0 0 0
SMALL
MULLIKEN NwChem

@<TRIPOS>ATOM
      1 C           0.1093    0.2603    2.3490 C.3     1  LIG1      -0.45999999999999996
      2 C           0.0846    1.1530    1.0967 C.3     1  LIG1      -0.29000000000000004
      3 CA          0.5103    0.3911   -0.1405 C.3     1  LIG1       0.21999999999999975
      4 C          -0.4662   -0.7037   -0.6975 C.2     1  LIG1       0.5099999999999998
      5 N           1.6363    0.6399   -0.6949 N.3     1  LIG1      -0.6699999999999999
      6 O          -0.0401   -1.3113   -1.7114 O.co2   1  LIG1      -0.6600000000000001
      7 OXT        -1.5472   -0.8357   -0.0678 O.co2   1  LIG1      -0.6500000000000004
      8 H          -0.5638   -0.5850    2.1844 H       1  LIG1       0.15000000000000002
      9 H          -0.2163    0.8118    3.2426 H       1  LIG1       0.15000000000000002
     10 H           1.1214   -0.1215    2.5366 H       1  LIG1       0.15000000000000002
     11 H          -0.9440    1.5022    0.9470 H       1  LIG1          0.14
     12 H           0.7437    2.0214    1.2280 H       1  LIG1          0.13
     13 H           1.6691   -0.0222   -1.4905 H       1  LIG1       0.29000000000000004
@<TRIPOS>BOND
     1     6     4   ar
     2    13     5    1
     3     4     3    1
     4     4     7   ar
     5     5     3    1
     6     3     2    1
     7    11     2    1
     8     2    12    1
     9     2     1    1
    10     8     1    1
    11     1    10    1
    12     1     9    1
