@<TRIPOS>MOLECULE
WRGKTDWHJSBCJR-UHFFFAOYSA-L	6045429	-1085.3370231079657
 24 23 0 0 0
SMALL
MULLIKEN NwChem

@<TRIPOS>ATOM
      1 C          -1.2289   -3.0910   -0.4639 C.3     1  LIG1      -0.6399999999999997
      2 C          -1.5318    0.5435   -1.1218 C.3     1  LIG1      -0.2599999999999998
      3 C          -1.0045    0.3731    0.3100 C.3     1  LIG1      -0.2599999999999998
      4 C          -1.4165   -0.6858   -2.0286 C.3     1  LIG1      -0.41000000000000014
      5 C           0.4926    0.0282    0.4191 C.3     1  LIG1       -0.2699999999999996
      6 C           1.4608    1.1708    0.0812 C.2     1  LIG1       0.3899999999999997
      7 C           0.7876   -0.6874    1.8205 C.2     1  LIG1       0.5300000000000002
      8 C           1.0704    2.6586    0.3125 C.2     1  LIG1       0.45999999999999996
      9 O           2.5197    0.9011   -0.4883 O.2     1  LIG1      -0.5600000000000005
     10 O           0.0253   -1.6788    2.0480 O.co2   1  LIG1      -0.6400000000000006
     11 O           1.7165   -0.2539    2.5255 O.co2   1  LIG1      -0.6500000000000004
     12 O           0.2028    3.0477   -0.5303 O.co2   1  LIG1      -0.6400000000000006
     13 O           1.6498    3.3154    1.2010 O.co2   1  LIG1      -0.6500000000000004
     14 S          -2.4087   -2.1781   -1.5404 S.3     1  LIG1      -0.030000000000001137
     15 H          -1.7717   -3.9687   -0.0921 H       1  LIG1       0.18000000000000005
     16 H          -0.8687   -2.4988    0.3950 H       1  LIG1       0.22999999999999998
     17 H          -0.3745   -3.4370   -1.0579 H       1  LIG1       0.18000000000000005
     18 H          -0.9690    1.3710   -1.5733 H       1  LIG1       0.15000000000000002
     19 H          -2.5904    0.8477   -1.0907 H       1  LIG1          0.13
     20 H          -1.1880    1.3165    0.8364 H       1  LIG1          0.13
     21 H          -1.5674   -0.4092    0.8296 H       1  LIG1          0.14
     22 H          -0.3754   -1.0132   -2.1200 H       1  LIG1       0.18000000000000005
     23 H          -1.7674   -0.4439   -3.0407 H       1  LIG1       0.18000000000000005
     24 H           0.7428   -0.7591   -0.3081 H       1  LIG1           0.14
@<TRIPOS>BOND
     1    23     4    1
     2    22     4    1
     3     4    14    1
     4     4     2    1
     5    18     2    1
     6    14     1    1
     7     2    19    1
     8     2     3    1
     9    17     1    1
    10    12     8   ar
    11     9     6    2
    12     1    15    1
    13     1    16    1
    14    24     5    1
    15     6     8    1
    16     6     5    1
    17     3     5    1
    18     3    21    1
    19     3    20    1
    20     8    13   ar
    21     5     7    1
    22     7    10   ar
    23     7    11   ar
