@<TRIPOS>MOLECULE
WRGQSWVCFNIUNZ-GDCKJWNLSA-L	11083935	-1691.5190451255116
 68 67 0 0 0
SMALL
MULLIKEN NwChem

@<TRIPOS>ATOM
      1 C         -11.4453   -0.8421   -2.1557 C.3     1  LIG1      -0.45999999999999996
      2 C         -11.6203   -0.5101   -0.6688 C.3     1  LIG1        -0.25
      3 C         -10.3520    0.0398    0.0037 C.3     1  LIG1        -0.25
      4 C          -9.8738    1.3835   -0.5629 C.3     1  LIG1      -0.2599999999999998
      5 C          -8.7090    2.0358    0.2022 C.3     1  LIG1      -0.2699999999999996
      6 C          -7.4061    1.2067    0.2429 C.3     1  LIG1        -0.25
      7 C          -7.2392    0.3402    1.4992 C.3     1  LIG1      -0.2699999999999996
      8 C          -5.9371   -0.4904    1.4936 C.3     1  LIG1      -0.3099999999999996
      9 C          -4.6899    0.3542    1.5278 C.2     1  LIG1      -0.1200000000000001
     10 C          -3.8138    0.5546    0.5270 C.2     1  LIG1      -0.1299999999999999
     11 C          -3.8612   -0.0506   -0.8513 C.3     1  LIG1      -0.3099999999999996
     12 C          -2.9086   -1.2569   -1.0267 C.3     1  LIG1      -0.2599999999999998
     13 C          -1.4204   -0.9651   -0.7712 C.3     1  LIG1      -0.2599999999999998
     14 C          -0.8150    0.0795   -1.7183 C.3     1  LIG1      -0.2599999999999998
     15 C           0.6913    0.3276   -1.5285 C.3     1  LIG1      -0.2699999999999996
     16 C           1.5852   -0.9120   -1.7700 C.3     1  LIG1      -0.28000000000000025
     17 C           2.0301   -1.6232   -0.4745 C.3     1  LIG1       -0.33999999999999986
     18 C           5.1837    0.1968    0.3956 C.3     1  LIG1       -0.07000000000000028
     19 C           7.0249    0.3495    2.0661 C.3     1  LIG1       -0.04999999999999982
     20 C           6.0295   -0.6277    1.3749 C.3     1  LIG1       0.09999999999999964
     21 C           2.9388   -0.7106    0.3466 C.2     1  LIG1       0.6200000000000001
     22 O           6.6369   -1.7068    0.7191 O.3     1  LIG1      -0.7300000000000004
     23 O           2.5455   -0.0994    1.3310 O.2     1  LIG1      -0.5500000000000007
     24 O           9.8836    0.1988    1.1023 O.3     1  LIG1      -0.7699999999999996
     25 O           9.2125    2.1106   -0.5630 O.3     1  LIG1        -0.75
     26 O           8.1242   -0.2384   -0.7520 O.2     1  LIG1      -0.8000000000000007
     27 O           4.1323   -0.6412   -0.2133 O.3     1  LIG1      -0.46000000000000085
     28 O           7.5460    1.3294    1.2154 O.3     1  LIG1      -0.6400000000000006
     29 P           8.8618    0.8131    0.1473 P.3     1  LIG1       0.9800000000000004
     30 H         -11.2221    0.0531   -2.7464 H       1  LIG1       0.15000000000000002
     31 H         -12.3531   -1.2950   -2.5715 H       1  LIG1          0.14
     32 H         -10.6197   -1.5496   -2.3038 H       1  LIG1          0.14
     33 H         -12.4366    0.2178   -0.5509 H       1  LIG1          0.13
     34 H         -11.9390   -1.4165   -0.1355 H       1  LIG1          0.13
     35 H         -10.5402    0.1541    1.0809 H       1  LIG1          0.13
     36 H          -9.5492   -0.7042   -0.0887 H       1  LIG1          0.14
     37 H          -9.5688    1.2510   -1.6103 H       1  LIG1          0.13
     38 H         -10.7247    2.0820   -0.5789 H       1  LIG1          0.13
     39 H          -8.5067    3.0076   -0.2678 H       1  LIG1          0.13
     40 H          -9.0310    2.2609    1.2301 H       1  LIG1          0.13
     41 H          -7.3518    0.5658   -0.6504 H       1  LIG1          0.13
     42 H          -6.5377    1.8726    0.1798 H       1  LIG1          0.13
     43 H          -7.2465    0.9946    2.3838 H       1  LIG1          0.13
     44 H          -8.0963   -0.3369    1.6128 H       1  LIG1          0.14
     45 H          -5.9475   -1.1531    2.3725 H       1  LIG1          0.14
     46 H          -5.9397   -1.1495    0.6164 H       1  LIG1       0.15000000000000002
     47 H          -4.5097    0.8647    2.4755 H       1  LIG1          0.13
     48 H          -2.9518    1.1898    0.7289 H       1  LIG1          0.14
     49 H          -4.8812   -0.3718   -1.0969 H       1  LIG1       0.15000000000000002
     50 H          -3.6012    0.7200   -1.5901 H       1  LIG1       0.15000000000000002
     51 H          -3.0261   -1.6463   -2.0499 H       1  LIG1          0.13
     52 H          -3.2392   -2.0542   -0.3465 H       1  LIG1          0.13
     53 H          -1.2751   -0.6426    0.2684 H       1  LIG1          0.13
     54 H          -0.8686   -1.9074   -0.8739 H       1  LIG1          0.14
     55 H          -1.3441    1.0353   -1.5929 H       1  LIG1          0.14
     56 H          -1.0006   -0.2372   -2.7577 H       1  LIG1          0.13
     57 H           0.9877    1.1304   -2.2160 H       1  LIG1          0.14
     58 H           0.8754    0.7114   -0.5170 H       1  LIG1          0.14
     59 H           1.0590   -1.6267   -2.4211 H       1  LIG1       0.15000000000000002
     60 H           2.4959   -0.6181   -2.3025 H       1  LIG1       0.15000000000000002
     61 H           1.1698   -1.8860    0.1482 H       1  LIG1       0.17000000000000004
     62 H           2.5806   -2.5353   -0.7288 H       1  LIG1       0.17000000000000004
     63 H           5.8267    0.4892   -0.4335 H       1  LIG1       0.17000000000000004
     64 H           4.7043    1.0605    0.8622 H       1  LIG1       0.16000000000000003
     65 H           7.8236   -0.2631    2.5167 H       1  LIG1       0.10999999999999999
     66 H           6.4759    0.8611    2.8841 H       1  LIG1          0.12
     67 H           5.3590   -1.0426    2.1518 H       1  LIG1          0.12
     68 H           7.3261   -1.2424    0.0891 H       1  LIG1       0.42000000000000004
@<TRIPOS>BOND
     1    56    14    1
     2    30     1    1
     3    31     1    1
     4    59    16    1
     5    32     1    1
     6    60    16    1
     7    57    15    1
     8     1     2    1
     9    51    12    1
    10    16    15    1
    11    16    17    1
    12    14    55    1
    13    14    15    1
    14    14    13    1
    15    37     4    1
    16    50    11    1
    17    15    58    1
    18    49    11    1
    19    12    11    1
    20    12    13    1
    21    12    52    1
    22    54    13    1
    23    11    10    1
    24    13    53    1
    25    26    29    2
    26    62    17    1
    27     2    33    1
    28     2    34    1
    29     2     3    1
    30    41     6    1
    31    38     4    1
    32    25    29    1
    33     4     3    1
    34     4     5    1
    35    17    61    1
    36    17    21    1
    37    63    18    1
    38    39     5    1
    39    27    21    1
    40    27    18    1
    41    36     3    1
    42     3    35    1
    43    68    22    1
    44    29    24    1
    45    29    28    1
    46    42     6    1
    47     5     6    1
    48     5    40    1
    49     6     7    1
    50    21    23    2
    51    18    64    1
    52    18    20    1
    53    10    48    1
    54    10     9    2
    55    46     8    1
    56    22    20    1
    57    28    19    1
    58    20    19    1
    59    20    67    1
    60     8     7    1
    61     8     9    1
    62     8    45    1
    63     7    44    1
    64     7    43    1
    65     9    47    1
    66    19    65    1
    67    19    66    1
