@<TRIPOS>MOLECULE
WRMNZCZEMHIOCP-UHFFFAOYSA-N	6045431	-385.9679458373317
 19 19 0 0 0
SMALL
MULLIKEN NwChem

@<TRIPOS>ATOM
      1 C          -2.5205   -0.4861    0.5093 C.ar    1  LIG1      -0.16000000000000014
      2 C          -1.9209    0.7601    0.6982 C.ar    1  LIG1      -0.15000000000000036
      3 C          -1.7203   -1.6085    0.2824 C.ar    1  LIG1      -0.15000000000000036
      4 C          -0.5300    0.8817    0.6617 C.ar    1  LIG1      -0.21999999999999975
      5 C          -0.3313   -1.4828    0.2435 C.ar    1  LIG1      -0.20000000000000018
      6 C           1.7847   -0.0846    0.3225 C.3     1  LIG1      -0.3600000000000003
      7 C           2.2106    0.3118   -1.1057 C.3     1  LIG1       -0.040000000000000036
      8 C           0.2855   -0.2385    0.4362 C.ar    1  LIG1      0.13999999999999968
      9 O           1.6726    1.5610   -1.5119 O.3     1  LIG1      -0.6600000000000001
     10 H          -3.6023   -0.5836    0.5426 H       1  LIG1       0.15000000000000002
     11 H          -2.5346    1.6387    0.8799 H       1  LIG1       0.16000000000000003
     12 H          -2.1785   -2.5835    0.1377 H       1  LIG1       0.16000000000000003
     13 H          -0.0650    1.8521    0.8189 H       1  LIG1       0.15000000000000002
     14 H           0.2856   -2.3612    0.0658 H       1  LIG1       0.15000000000000002
     15 H           2.1400    0.6910    1.0112 H       1  LIG1       0.16000000000000003
     16 H           2.2883   -1.0219    0.5921 H       1  LIG1       0.16000000000000003
     17 H           3.2988    0.4268   -1.1472 H       1  LIG1       0.16000000000000003
     18 H           1.9318   -0.4926   -1.8067 H       1  LIG1          0.14
     19 H           0.7063    1.4659   -1.5255 H       1  LIG1       0.42000000000000004
@<TRIPOS>BOND
     1    18     7    1
     2    19     9    1
     3     9     7    1
     4    17     7    1
     5     7     6    1
     6    14     5    1
     7    12     3    1
     8     5     3   ar
     9     5     8   ar
    10     3     1   ar
    11     6     8    1
    12     6    16    1
    13     6    15    1
    14     8     4   ar
    15     1    10    1
    16     1     2   ar
    17     4     2   ar
    18     4    13    1
    19     2    11    1
