@<TRIPOS>MOLECULE
WSFSSNUMVMOOMR-UHFFFAOYSA-N	6045433	-114.49843374858307
 4 3 0 0 0
SMALL
MULLIKEN NwChem

@<TRIPOS>ATOM
      1 C           0.2615   -0.2306   -0.3895 C.2     1  LIG1       0.08000000000000007
      2 O          -0.3420    0.3016    0.5094 O.2     1  LIG1      -0.39000000000000057
      3 H          -0.2532   -0.7324   -1.2365 H       1  LIG1       0.16000000000000003
      4 H           1.3713   -0.2546   -0.4298 H       1  LIG1       0.15000000000000002
@<TRIPOS>BOND
     1     3     1    1
     2     4     1    1
     3     1     2    2
