@<TRIPOS>MOLECULE
WTDRDQBEARUVNC-LURJTMIESA-N	6045434	-705.0888093388916
 25 25 0 0 0
SMALL
MULLIKEN NwChem

@<TRIPOS>ATOM
      1 C          -1.5678    1.2366    0.0010 C.ar    1  LIG1      -0.21999999999999975
      2 C          -0.9824    2.5056    0.0007 C.ar    1  LIG1      -0.21999999999999975
      3 C          -1.4652   -1.2538    0.4542 C.3     1  LIG1      -0.3600000000000003
      4 C           0.4285    0.3367    0.9913 C.ar    1  LIG1      -0.2699999999999996
      5 C          -0.8696    0.1350    0.4966 C.ar    1  LIG1      0.13999999999999968
      6 CA         -1.1595   -2.0136   -0.8572 C.3     1  LIG1       -0.040000000000000036
      7 C           0.3071    2.7016    0.4914 C.ar    1  LIG1       0.2999999999999998
      8 C           1.0220    1.5966    0.9946 C.ar    1  LIG1       0.3099999999999996
      9 C           0.3561   -2.1052   -1.0320 C.2     1  LIG1       0.5899999999999999
     10 N          -1.7833   -3.3382   -0.8036 N.3     1  LIG1        -0.75
     11 O           0.9323    3.9176    0.5207 O.3     1  LIG1      -0.6799999999999997
     12 O           2.2831    1.8313    1.4675 O.3     1  LIG1      -0.6799999999999997
     13 OXT         1.0843   -2.7403   -0.2952 O.2     1  LIG1      -0.5299999999999994
     14 O           0.8102   -1.4154   -2.1006 O.3     1  LIG1      -0.5800000000000001
     15 H          -2.5757    1.1110   -0.3858 H       1  LIG1       0.15000000000000002
     16 H          -1.5362    3.3608   -0.3833 H       1  LIG1       0.16000000000000003
     17 H          -1.0798   -1.8580    1.2850 H       1  LIG1       0.16000000000000003
     18 H          -2.5547   -1.2196    0.5542 H       1  LIG1       0.17000000000000004
     19 H           0.9937   -0.5135    1.3701 H       1  LIG1       0.16000000000000003
     20 HA         -1.5794   -1.4591   -1.7014 H       1  LIG1       0.17000000000000004
     21 H1         -1.6722   -3.8120   -1.6993 H       1  LIG1       0.33999999999999997
     22 H2         -1.2778   -3.9029   -0.1200 H       1  LIG1       0.31999999999999995
     23 H           0.3299    4.5816    0.1517 H       1  LIG1       0.44999999999999996
     24 H           2.6461    0.9950    1.7980 H       1  LIG1       0.44999999999999996
     25 H           1.7814   -1.5189   -2.1092 H       1  LIG1       0.43999999999999995
@<TRIPOS>BOND
     1    25    14    1
     2    14     9    1
     3    20     6    1
     4    21    10    1
     5     9     6    1
     6     9    13    2
     7     6    10    1
     8     6     3    1
     9    10    22    1
    10    15     1    1
    11    16     2    1
    12     2     1   ar
    13     2     7   ar
    14     1     5   ar
    15    23    11    1
    16     3     5    1
    17     3    18    1
    18     3    17    1
    19     7    11    1
    20     7     8   ar
    21     5     4   ar
    22     4     8   ar
    23     4    19    1
    24     8    12    1
    25    12    24    1
