@<TRIPOS>MOLECULE
WTFXTQVDAKGDEY-HTQZYQBOSA-L	6045435	-837.3208248385442
 24 24 0 0 0
SMALL
MULLIKEN NwChem

@<TRIPOS>ATOM
      1 C          -0.1702    3.1631   -0.6242 C.2     1  LIG1      -0.46999999999999975
      2 C          -0.1748   -1.6661    1.8999 C.2     1  LIG1      -0.16999999999999993
      3 C          -0.5906   -0.4347    2.2399 C.2     1  LIG1      -0.16000000000000014
      4 C           1.0186   -0.8924   -0.0702 C.2     1  LIG1        -0.25
      5 C          -0.7781    2.0948   -1.1763 C.2     1  LIG1       0.3099999999999996
      6 C           0.7518   -1.8998    0.7831 C.2     1  LIG1       0.08000000000000007
      7 C          -0.0085    0.7783    1.5636 C.3     1  LIG1       0.04999999999999982
      8 C           0.4939    0.5085    0.1202 C.3     1  LIG1       0.08000000000000007
      9 C          -1.8870    2.2737   -2.2788 C.2     1  LIG1       0.4800000000000004
     10 C           1.3932   -3.3105    0.6384 C.2     1  LIG1       0.46999999999999975
     11 O           1.0895    1.2839    2.3768 O.3     1  LIG1      -0.6699999999999999
     12 O          -2.4858    1.2328   -2.6260 O.co2   1  LIG1      -0.6699999999999999
     13 O          -2.0407    3.4615   -2.6693 O.co2   1  LIG1      -0.6699999999999999
     14 O           1.0066   -4.1569    1.4922 O.co2   1  LIG1      -0.6699999999999999
     15 O           2.2303   -3.4453   -0.2872 O.co2   1  LIG1      -0.6699999999999999
     16 O          -0.5254    0.7814   -0.8555 O.2     1  LIG1      -0.5399999999999991
     17 H          -0.4643    4.1295   -1.0144 H       1  LIG1          0.14
     18 H           0.5684    3.1196    0.1707 H       1  LIG1       0.15000000000000002
     19 H          -0.4917   -2.5603    2.4305 H       1  LIG1          0.13
     20 H          -1.2683   -0.2698    3.0776 H       1  LIG1       0.15000000000000002
     21 H           1.6681   -1.0909   -0.9185 H       1  LIG1          0.14
     22 H          -0.7233    1.6030    1.5222 H       1  LIG1       0.16000000000000003
     23 H           1.3290    1.2082   -0.0403 H       1  LIG1       0.15000000000000002
     24 H           1.6791    0.5167    2.4713 H       1  LIG1       0.42000000000000004
@<TRIPOS>BOND
     1    13     9   ar
     2    12     9   ar
     3     9     5    1
     4     5    16    1
     5     5     1    2
     6    17     1    1
     7    21     4    1
     8    16     8    1
     9     1    18    1
    10    15    10   ar
    11     4     8    1
    12     4     6    2
    13    23     8    1
    14     8     7    1
    15    10     6    1
    16    10    14   ar
    17     6     2    1
    18    22     7    1
    19     7     3    1
    20     7    11    1
    21     2     3    2
    22     2    19    1
    23     3    20    1
    24    11    24    1
