@<TRIPOS>MOLECULE
WTIFIAZWCCBCGE-UUOKFMHZSA-L	6045436	-1605.3627016559074
 36 38 0 0 0
SMALL
MULLIKEN NwChem

@<TRIPOS>ATOM
      1 C           0.3573    1.5359    2.3642 C.3     1  LIG1       -0.07000000000000028
      2 C           2.5965   -1.0651   -2.2354 C.ar    1  LIG1       0.17999999999999972
      3 C           1.4795    1.9243    1.4036 C.3     1  LIG1       0.11000000000000032
      4 C           1.0533   -2.4849   -1.7708 C.ar    1  LIG1       0.08000000000000007
      5 C           1.0764    2.7514    0.1506 C.3     1  LIG1       0.08999999999999986
      6 C           0.9265    1.6567   -0.9074 C.3     1  LIG1       0.05999999999999961
      7 C           1.0121   -1.5276   -0.7808 C.ar    1  LIG1       0.5700000000000003
      8 C           0.0141   -3.5423   -1.7634 C.ar    1  LIG1       0.4900000000000002
      9 C           2.0956    0.7419   -0.5533 C.3     1  LIG1       0.2599999999999998
     10 C          -0.9101   -2.5251    0.2112 C.ar    1  LIG1       0.6100000000000003
     11 N          -1.8393   -2.4515    1.1585 N.pl3   1  LIG1      -0.8600000000000003
     12 N           2.0663   -2.1740   -2.6782 N.ar    1  LIG1      -0.5800000000000001
     13 N           0.1494   -1.5553    0.2623 N.ar    1  LIG1      -0.7599999999999998
     14 N          -0.9237   -3.4566   -0.7558 N.ar    1  LIG1      -0.6799999999999997
     15 N           2.0070   -0.6080   -1.0498 N.ar    1  LIG1         -0.5
     16 O           0.0141    3.6500    0.2686 O.3     1  LIG1      -0.7300000000000004
     17 O           1.0542    2.1427   -2.2377 O.3     1  LIG1      -0.6699999999999999
     18 O          -0.0079   -4.4390   -2.6234 O.2     1  LIG1      -0.6600000000000001
     19 O          -2.0826    2.0620    0.1104 O.2     1  LIG1      -0.7100000000000009
     20 O          -3.0903    0.1011    1.4896 O.3     1  LIG1      -0.7100000000000009
     21 O          -2.5276    2.2981    2.6818 O.3     1  LIG1      -0.6799999999999997
     22 O          -0.6523    0.7365    1.7742 O.3     1  LIG1      -0.6199999999999992
     23 O           2.1434    0.7441    0.8760 O.3     1  LIG1      -0.5500000000000007
     24 P          -2.1910    1.4393    1.5012 P.3     1  LIG1       1.1300000000000008
     25 H          -0.0796    2.4497    2.7845 H       1  LIG1       0.17000000000000004
     26 H           0.8063    0.9590    3.1856 H       1  LIG1       0.16000000000000003
     27 H           3.3965   -0.4999   -2.6994 H       1  LIG1       0.19999999999999996
     28 H           2.2205    2.4789    2.0033 H       1  LIG1       0.16000000000000003
     29 H           1.9578    3.3429   -0.1469 H       1  LIG1       0.15000000000000002
     30 H          -0.0242    1.1327   -0.7637 H       1  LIG1       0.17000000000000004
     31 H           3.0200    1.1668   -0.9798 H       1  LIG1       0.18000000000000005
     32 H          -1.4814   -1.8322    1.8938 H       1  LIG1       0.29000000000000004
     33 H           0.0085   -0.7285    0.8421 H       1  LIG1       0.41000000000000003
     34 H          -0.8474    3.1222    0.2285 H       1  LIG1       0.44999999999999996
     35 H           0.2707    2.7009   -2.3648 H       1  LIG1       0.43000000000000005
     36 H          -2.7056   -0.7256    1.0827 H       1  LIG1       0.43000000000000005
@<TRIPOS>BOND
     1    27     2    1
     2    12     2   ar
     3    12     4   ar
     4    18     8    2
     5    35    17    1
     6    17     6    1
     7     2    15   ar
     8     4     8   ar
     9     4     7   ar
    10     8    14   ar
    11    15     7   ar
    12    15     9    1
    13    31     9    1
    14     6    30    1
    15     6     9    1
    16     6     5    1
    17     7    13   ar
    18    14    10   ar
    19     9    23    1
    20    29     5    1
    21    19    24    2
    22     5    16    1
    23     5     3    1
    24    10    13   ar
    25    10    11    1
    26    34    16    1
    27    13    33    1
    28    23     3    1
    29    36    20    1
    30    11    32    1
    31     3    28    1
    32     3     1    1
    33    20    24    1
    34    24    22    1
    35    24    21    1
    36    22     1    1
    37     1    25    1
    38     1    26    1
