@<TRIPOS>MOLECULE
WUUGFSXJNOTRMR-IOSLPCCCSA-N	6045438	-1325.6059825424986
 35 37 0 0 0
SMALL
MULLIKEN NwChem

@<TRIPOS>ATOM
      1 C           1.1404    5.3033   -1.0718 C.3     1  LIG1      -0.5999999999999996
      2 C           1.4306    3.1994    0.7944 C.3     1  LIG1       -0.4500000000000002
      3 C          -0.4882   -3.9037   -1.8803 C.ar    1  LIG1       0.16000000000000014
      4 C           0.4448   -1.5128    1.6370 C.ar    1  LIG1       0.21999999999999975
      5 C           0.6128    2.2980   -0.1255 C.3     1  LIG1       0.16000000000000014
      6 C           0.1655   -3.3726    0.6474 C.ar    1  LIG1       0.17999999999999972
      7 C          -0.9196    2.3615    0.0417 C.3     1  LIG1       0.05999999999999961
      8 C          -1.3263    0.8845    0.2928 C.3     1  LIG1       0.09999999999999964
      9 C           0.0483   -4.7097    0.2149 C.ar    1  LIG1       0.4800000000000004
     10 C          -0.0844   -2.3952   -0.3210 C.ar    1  LIG1       0.5300000000000002
     11 C          -0.0910    0.1169   -0.2274 C.3     1  LIG1          0.25
     12 N           0.2291   -5.7596    1.0573 N.pl3   1  LIG1      -0.7800000000000002
     13 N          -0.2782   -4.9526   -1.0677 N.ar    1  LIG1      -0.5499999999999998
     14 N          -0.4186   -2.5974   -1.6010 N.ar    1  LIG1        -0.54
     15 N           0.5008   -2.8021    1.8654 N.ar    1  LIG1      -0.5700000000000003
     16 N           0.0978   -1.1926    0.3344 N.ar    1  LIG1      -0.5199999999999996
     17 O          -1.4745    2.8348   -1.1893 O.3     1  LIG1      -0.6699999999999999
     18 O          -2.5436    0.5127   -0.3000 O.3     1  LIG1      -0.6600000000000001
     19 O           1.0040    0.9395    0.1452 O.3     1  LIG1      -0.5399999999999991
     20 S           0.9806    4.9755    0.7233 S.3     1  LIG1      0.03999999999999915
     21 H           1.0409    6.3843   -1.2012 H       1  LIG1       0.19999999999999996
     22 H           0.3497    4.8000   -1.6342 H       1  LIG1       0.18999999999999995
     23 H           2.1237    4.9955   -1.4418 H       1  LIG1       0.19999999999999996
     24 H           2.4953    3.0671    0.5755 H       1  LIG1       0.19999999999999996
     25 H           1.2659    2.8977    1.8345 H       1  LIG1       0.19999999999999996
     26 H          -0.7484   -4.1567   -2.9059 H       1  LIG1       0.17000000000000004
     27 H           0.6705   -0.7358    2.3542 H       1  LIG1       0.21999999999999997
     28 H           0.8343    2.5266   -1.1766 H       1  LIG1       0.17000000000000004
     29 H          -1.2107    3.0196    0.8667 H       1  LIG1       0.18000000000000005
     30 H          -1.4255    0.6930    1.3658 H       1  LIG1       0.18000000000000005
     31 H          -0.1588   -0.0153   -1.3172 H       1  LIG1       0.18000000000000005
     32 H           0.6562   -5.5902    1.9560 H       1  LIG1          0.38
     33 H           0.3095   -6.6795    0.6492 H       1  LIG1          0.37
     34 H          -2.3771    3.1371   -1.0025 H       1  LIG1       0.43999999999999995
     35 H          -2.4887    0.7910   -1.2308 H       1  LIG1       0.42000000000000004
@<TRIPOS>BOND
     1    26     3    1
     2     3    14   ar
     3     3    13   ar
     4    22     1    1
     5    14    10   ar
     6    23     1    1
     7    31    11    1
     8    35    18    1
     9    21     1    1
    10    17    34    1
    11    17     7    1
    12    28     5    1
    13     1    20    1
    14    13     9   ar
    15    10    16   ar
    16    10     6   ar
    17    18     8    1
    18    11    19    1
    19    11     8    1
    20    11    16    1
    21     5     7    1
    22     5    19    1
    23     5     2    1
    24     7     8    1
    25     7    29    1
    26     9     6   ar
    27     9    12    1
    28     8    30    1
    29    16     4   ar
    30    24     2    1
    31     6    15   ar
    32    33    12    1
    33    20     2    1
    34     2    25    1
    35    12    32    1
    36     4    15   ar
    37     4    27    1
