@<TRIPOS>MOLECULE
WVIMUEUQJFPNDK-PEBGCTIMSA-M	11083932	-2159.797563408046
 47 48 0 0 0
SMALL
MULLIKEN NwChem

@<TRIPOS>ATOM
      1 C          -5.7299   -0.2531   -0.6472 C.ar    1  LIG1      -0.23000000000000043
      2 C           4.2492   -1.7998    1.0766 C.3     1  LIG1       -0.16999999999999993
      3 C          -4.3874   -0.1847   -0.7137 C.ar    1  LIG1       0.07000000000000028
      4 C           4.3834   -1.2418   -0.3428 C.3     1  LIG1       -0.07000000000000028
      5 C           0.2690   -0.0915   -2.1653 C.3     1  LIG1       -0.1200000000000001
      6 C          -0.2810    0.0874   -0.7541 C.3     1  LIG1       0.1299999999999999
      7 C          -6.3873   -0.4160    0.6536 C.ar    1  LIG1       0.4299999999999997
      8 C          -0.0097   -1.1141    0.1952 C.3     1  LIG1       0.08000000000000007
      9 C          -1.4106   -1.4283    0.7826 C.3     1  LIG1       0.09999999999999964
     10 C          -2.1946   -0.1334    0.4624 C.3     1  LIG1       0.2699999999999996
     11 C          -4.2753   -0.4626    1.7135 C.ar    1  LIG1          0.71
     12 N           4.6113   -0.9172    2.1801 N.3     1  LIG1      -0.7800000000000002
     13 N          -7.6856   -0.4657    0.6936 N.pl3   1  LIG1        -0.79
     14 N          -5.5860   -0.5193    1.7885 N.ar    1  LIG1      -0.6500000000000004
     15 N          -3.6286   -0.2831    0.4402 N.ar    1  LIG1      -0.5199999999999996
     16 O           0.8564   -0.7645    1.2793 O.3     1  LIG1      -0.7100000000000009
     17 O          -1.2906   -1.6923    2.1553 O.3     1  LIG1      -0.7200000000000006
     18 O          -3.4865   -0.5526    2.7120 O.2     1  LIG1      -0.6999999999999993
     19 O           2.5239    1.2238    1.2323 O.3     1  LIG1      -0.6899999999999995
     20 O           4.7057    1.8248   -0.0338 O.2     1  LIG1      -0.5800000000000001
     21 O           3.0354    0.6342   -3.2630 O.3     1  LIG1      -0.7100000000000009
     22 O           2.1292    3.0627   -3.5139 O.2     1  LIG1      -0.5500000000000007
     23 O           3.3259   -0.3003   -0.6935 O.3     1  LIG1      -0.6199999999999992
     24 O           0.5521    1.1675   -2.8120 O.3     1  LIG1      -0.5199999999999996
     25 O          -1.6988    0.2366   -0.8209 O.3     1  LIG1      -0.5500000000000007
     26 O           2.3144    1.8975   -1.1630 O.3     1  LIG1      -0.6400000000000006
     27 P           3.3572    1.2366   -0.1104 P.3     1  LIG1       1.2599999999999998
     28 P           2.0295    1.7951   -2.7844 P.3     1  LIG1       1.2699999999999996
     29 H          -6.3412   -0.1781   -1.5391 H       1  LIG1          0.14
     30 H           4.8858   -2.6966    1.1155 H       1  LIG1       0.17000000000000004
     31 H           3.2148   -2.1292    1.2248 H       1  LIG1       0.17000000000000004
     32 H          -3.8308   -0.0472   -1.6323 H       1  LIG1       0.19999999999999996
     33 H           4.2808   -2.0442   -1.0808 H       1  LIG1       0.18999999999999995
     34 H           5.3493   -0.7442   -0.4870 H       1  LIG1       0.18999999999999995
     35 H           1.1701   -0.7115   -2.1450 H       1  LIG1       0.19999999999999996
     36 H          -0.4822   -0.5887   -2.7834 H       1  LIG1       0.20999999999999996
     37 H           0.1607    0.9858   -0.3049 H       1  LIG1       0.18000000000000005
     38 H           0.4305   -1.9684   -0.3318 H       1  LIG1       0.18999999999999995
     39 H          -1.8801   -2.2565    0.2324 H       1  LIG1       0.16000000000000003
     40 H          -1.9253    0.6269    1.2132 H       1  LIG1       0.17000000000000004
     41 H           5.4678   -0.4069    1.9699 H       1  LIG1       0.32999999999999996
     42 H           3.8921   -0.2137    2.3253 H       1  LIG1       0.33999999999999997
     43 H          -7.9428   -0.5785    1.6817 H       1  LIG1          0.26
     44 H           0.2929   -0.9854    2.0751 H       1  LIG1       0.44999999999999996
     45 H          -2.1553   -1.2819    2.5490 H       1  LIG1       0.45999999999999996
     46 H           1.7880    0.5236    1.2536 H       1  LIG1           0.5
     47 H           3.2832    0.0466   -2.5171 H       1  LIG1           0.49
@<TRIPOS>BOND
     1    22    28    2
     2    21    28    1
     3    21    47    1
     4    24    28    1
     5    24     5    1
     6    28    26    1
     7    36     5    1
     8     5    35    1
     9     5     6    1
    10    32     3    1
    11    29     1    1
    12    26    27    1
    13    33     4    1
    14    25     6    1
    15    25    10    1
    16     6    37    1
    17     6     8    1
    18     3     1   ar
    19     3    15   ar
    20    23     4    1
    21    23    27    1
    22     1     7   ar
    23    34     4    1
    24     4     2    1
    25    38     8    1
    26    27    20    2
    27    27    19    1
    28     8     9    1
    29     8    16    1
    30    39     9    1
    31    15    10    1
    32    15    11   ar
    33    10     9    1
    34    10    40    1
    35     7    13    1
    36     7    14   ar
    37    13    43    1
    38     9    17    1
    39     2    30    1
    40     2    31    1
    41     2    12    1
    42    19    46    1
    43    16    44    1
    44    11    14   ar
    45    11    18    2
    46    41    12    1
    47    17    45    1
    48    12    42    1
