@<TRIPOS>MOLECULE
WVMWZWGZRAXUBK-SYTVJDICSA-M	6045440	-723.5293122947647
 22 22 0 0 0
SMALL
MULLIKEN NwChem

@<TRIPOS>ATOM
      1 C           1.1526    0.8670   -0.5675 C.3     1  LIG1       -0.34999999999999964
      2 C          -1.2126   -0.0829   -0.6317 C.3     1  LIG1       -0.40000000000000036
      3 C           1.7388   -0.5270   -0.2426 C.3     1  LIG1       0.09999999999999964
      4 C          -0.6375   -1.4469   -0.3006 C.2     1  LIG1       0.45999999999999996
      5 C           0.8112   -1.6415   -0.7749 C.3     1  LIG1       0.04999999999999982
      6 C          -0.5270    1.3146    1.3689 C.2     1  LIG1       0.5800000000000001
      7 C          -0.3228    1.1083   -0.1775 C.3     1  LIG1       0.23000000000000043
      8 O           2.0208   -0.7200    1.1201 O.3     1  LIG1      -0.7200000000000006
      9 O          -1.2730   -2.3427    0.2240 O.2     1  LIG1      -0.5199999999999996
     10 O           0.8171   -1.6981   -2.2173 O.3     1  LIG1      -0.6699999999999999
     11 O          -1.1054    2.3851    1.6743 O.co2   1  LIG1      -0.6400000000000006
     12 O          -0.1400    0.3878    2.1315 O.co2   1  LIG1      -0.6500000000000004
     13 O          -0.7690    2.2848   -0.8334 O.3     1  LIG1      -0.7300000000000004
     14 H           1.7814    1.6304   -0.0958 H       1  LIG1       0.16000000000000003
     15 H           1.2204    1.0484   -1.6528 H       1  LIG1       0.16000000000000003
     16 H          -1.3013   -0.0126   -1.7264 H       1  LIG1       0.18999999999999995
     17 H          -2.2186    0.0050   -0.2126 H       1  LIG1       0.17000000000000004
     18 H           2.6897   -0.6333   -0.7870 H       1  LIG1          0.14
     19 H           1.1678   -2.6130   -0.4263 H       1  LIG1       0.16000000000000003
     20 H           1.2221   -0.3793    1.6190 H       1  LIG1       0.43000000000000005
     21 H           0.7152   -0.7876   -2.5350 H       1  LIG1       0.43999999999999995
     22 H          -1.1083    2.7951   -0.0519 H       1  LIG1            0.4
@<TRIPOS>BOND
     1    21    10    1
     2    10     5    1
     3    16     2    1
     4    15     1    1
     5    13     7    1
     6    13    22    1
     7    18     3    1
     8     5    19    1
     9     5     4    1
    10     5     3    1
    11     2     4    1
    12     2    17    1
    13     2     7    1
    14     1     3    1
    15     1     7    1
    16     1    14    1
    17     4     9    2
    18     3     8    1
    19     7     6    1
    20     8    20    1
    21     6    11   ar
    22     6    12   ar
