@<TRIPOS>MOLECULE
WVPRAWNIVDFQBO-DUBIXASGSA-N	6045441	-1593.3168996731756
 95 95 0 0 0
SMALL
MULLIKEN NwChem

@<TRIPOS>ATOM
      1 C           1.8706    4.3184   -1.7568 C.3     1  LIG1            -0.54
      2 C           2.0668    2.9672   -3.8926 C.3     1  LIG1        -0.54
      3 C           4.6366    0.9598    1.9607 C.3     1  LIG1      -0.5499999999999998
      4 C           2.9114   -2.8587   -2.4151 C.3     1  LIG1      -0.5300000000000002
      5 C          -1.5859    1.8521   -2.6829 C.3     1  LIG1        -0.54
      6 C           0.9645    1.8630    2.4299 C.3     1  LIG1      -0.5599999999999996
      7 C           0.6624   -2.3997    1.9483 C.3     1  LIG1      -0.5599999999999996
      8 C          -4.7722    1.0741   -0.6956 C.3     1  LIG1         -0.25
      9 C           4.7602    3.4366   -1.0695 C.3     1  LIG1      -0.3099999999999996
     10 C           4.8064   -1.0620   -0.3381 C.3     1  LIG1      -0.3200000000000003
     11 C           0.6368   -0.7105   -2.7264 C.3     1  LIG1      -0.3200000000000003
     12 C          -1.1374    2.4304    0.3469 C.3     1  LIG1      -0.33999999999999986
     13 C           0.0076   -0.4424    4.2810 C.3     1  LIG1      -0.3099999999999996
     14 C          -5.5412   -3.4298   -0.6330 C.ar    1  LIG1      -0.16999999999999993
     15 C           3.9758    3.0479   -2.3042 C.2     1  LIG1      -0.20000000000000018
     16 C           4.3173    2.8110    0.2727 C.3     1  LIG1      -0.33000000000000007
     17 C           4.6512    0.4311   -0.4978 C.2     1  LIG1      -0.1900000000000004
     18 C           3.4371   -1.7744   -0.1749 C.3     1  LIG1      -0.33000000000000007
     19 C           1.6199   -0.8426   -1.5936 C.2     1  LIG1      -0.1900000000000004
     20 C          -0.8230   -0.5403   -2.2148 C.3     1  LIG1      -0.34999999999999964
     21 C          -0.9251    1.1186   -0.3661 C.2     1  LIG1      -0.16000000000000014
     22 C          -1.4966    2.2529    1.8405 C.3     1  LIG1      -0.33999999999999986
     23 C          -0.8636    0.4566    3.4412 C.2     1  LIG1      -0.1900000000000004
     24 C          -0.4512   -1.9220    4.2258 C.3     1  LIG1      -0.33999999999999986
     25 C          -4.3002   -3.8324   -0.1442 C.ar    1  LIG1      -0.23000000000000043
     26 C          -5.9104   -2.0862   -0.5490 C.ar    1  LIG1      -0.20000000000000018
     27 C          -1.7580   -2.9041    2.3569 C.2     1  LIG1        -0.25
     28 C          -2.0526   -3.3713    0.9475 C.3     1  LIG1      -0.40000000000000036
     29 C           2.7306    3.4297   -2.6200 C.2     1  LIG1      0.16999999999999993
     30 C           4.5535    1.3269    0.4953 C.2     1  LIG1      0.16999999999999993
     31 C           2.5754   -1.7701   -1.4234 C.2     1  LIG1      0.16999999999999993
     32 C          -1.1047    0.8453   -1.6655 C.2     1  LIG1      0.15000000000000036
     33 C          -0.4767    1.4504    2.6259 C.2     1  LIG1      0.17999999999999972
     34 C          -0.5806   -2.4470    2.8136 C.2     1  LIG1      0.20000000000000018
     35 C          -3.4128   -2.9185    0.4409 C.ar    1  LIG1       0.1200000000000001
     36 C          -5.0521   -1.1573    0.0332 C.ar    1  LIG1       0.3099999999999996
     37 C          -3.8052   -1.5703    0.5430 C.ar    1  LIG1       0.23000000000000043
     38 O          -3.0321   -0.6018    1.1173 O.3     1  LIG1      -0.6799999999999997
     39 O          -5.4579    0.1523    0.1565 O.3     1  LIG1      -0.5500000000000007
     40 H           1.0273    3.7455   -1.3483 H       1  LIG1       0.18000000000000005
     41 H           1.4366    5.1370   -2.3479 H       1  LIG1       0.16000000000000003
     42 H           2.4126    4.7591   -0.9152 H       1  LIG1       0.16000000000000003
     43 H           2.7126    2.3042   -4.4783 H       1  LIG1       0.16000000000000003
     44 H           1.1384    2.4278   -3.6684 H       1  LIG1       0.18000000000000005
     45 H           1.7851    3.8196   -4.5262 H       1  LIG1       0.16000000000000003
     46 H           4.6073   -0.1166    2.1458 H       1  LIG1       0.16000000000000003
     47 H           5.5593    1.3550    2.4080 H       1  LIG1       0.16000000000000003
     48 H           3.8076    1.4154    2.5159 H       1  LIG1       0.17000000000000004
     49 H           2.7454   -3.8519   -1.9756 H       1  LIG1       0.16000000000000003
     50 H           2.3343   -2.7982   -3.3402 H       1  LIG1       0.16000000000000003
     51 H           3.9753   -2.8165   -2.6859 H       1  LIG1       0.16000000000000003
     52 H          -2.6218    1.6312   -2.9776 H       1  LIG1       0.16000000000000003
     53 H          -1.5501    2.8821   -2.3189 H       1  LIG1       0.16000000000000003
     54 H          -0.9858    1.8017   -3.5998 H       1  LIG1       0.17000000000000004
     55 H           1.6289    1.4473    3.1903 H       1  LIG1       0.17000000000000004
     56 H           1.3423    1.5493    1.4467 H       1  LIG1       0.18000000000000005
     57 H           1.0615    2.9561    2.4666 H       1  LIG1       0.16000000000000003
     58 H           0.8428   -3.3562    1.4440 H       1  LIG1       0.17000000000000004
     59 H           0.5897   -1.6379    1.1621 H       1  LIG1       0.18999999999999995
     60 H           1.5516   -2.1675    2.5416 H       1  LIG1       0.17000000000000004
     61 H          -3.6891    1.0413   -0.5413 H       1  LIG1       0.18999999999999995
     62 H          -4.9955    0.8635   -1.7524 H       1  LIG1       0.15000000000000002
     63 H          -5.1520    2.0665   -0.4404 H       1  LIG1       0.17000000000000004
     64 H           5.8169    3.1901   -1.2278 H       1  LIG1          0.14
     65 H           4.7158    4.5271   -0.9442 H       1  LIG1       0.15000000000000002
     66 H           5.3323   -1.4744   -1.2095 H       1  LIG1          0.14
     67 H           5.4276   -1.3049    0.5322 H       1  LIG1       0.15000000000000002
     68 H           0.8937    0.1609   -3.3471 H       1  LIG1       0.15000000000000002
     69 H           0.6807   -1.5812   -3.3889 H       1  LIG1       0.15000000000000002
     70 H          -0.2298    3.0485    0.2752 H       1  LIG1       0.16000000000000003
     71 H          -1.9325    3.0141   -0.1323 H       1  LIG1       0.15000000000000002
     72 H           1.0544   -0.3766    3.9685 H       1  LIG1       0.16000000000000003
     73 H          -0.0180   -0.1222    5.3343 H       1  LIG1       0.15000000000000002
     74 H          -6.2164   -4.1544   -1.0793 H       1  LIG1       0.15000000000000002
     75 H           4.4905    2.3980   -3.0123 H       1  LIG1          0.13
     76 H           4.8364    3.3573    1.0753 H       1  LIG1          0.14
     77 H           3.2483    3.0175    0.4346 H       1  LIG1       0.16000000000000003
     78 H           4.5395    0.7789   -1.5200 H       1  LIG1          0.13
     79 H           3.6155   -2.8153    0.1332 H       1  LIG1          0.13
     80 H           2.9058   -1.2868    0.6493 H       1  LIG1       0.16000000000000003
     81 H           1.5137   -0.0856   -0.8163 H       1  LIG1          0.13
     82 H          -1.5116   -0.7467   -3.0450 H       1  LIG1          0.14
     83 H          -1.0221   -1.3016   -1.4501 H       1  LIG1       0.16000000000000003
     84 H          -0.5993    0.3003    0.2722 H       1  LIG1          0.14
     85 H          -1.5757    3.2570    2.2847 H       1  LIG1          0.14
     86 H          -2.4806    1.7805    1.9218 H       1  LIG1       0.15000000000000002
     87 H          -1.9331    0.2583    3.5219 H       1  LIG1          0.12
     88 H           0.2733   -2.5303    4.7864 H       1  LIG1       0.15000000000000002
     89 H          -1.4141   -2.0176    4.7423 H       1  LIG1       0.15000000000000002
     90 H          -4.0038   -4.8767   -0.2096 H       1  LIG1       0.15000000000000002
     91 H          -6.8693   -1.7335   -0.9151 H       1  LIG1       0.15000000000000002
     92 H          -2.6080   -2.9316    3.0400 H       1  LIG1          0.14
     93 H          -1.2672   -3.0159    0.2664 H       1  LIG1       0.18999999999999995
     94 H          -2.0145   -4.4688    0.9020 H       1  LIG1       0.17000000000000004
     95 H          -2.2757   -1.0060    1.5819 H       1  LIG1       0.44999999999999996
@<TRIPOS>BOND
     1    45     2    1
     2    43     2    1
     3     2    44    1
     4     2    29    1
     5    54     5    1
     6    69    11    1
     7    68    11    1
     8    50     4    1
     9    82    20    1
    10    75    15    1
    11    52     5    1
    12    11    20    1
    13    11    19    1
    14    51     4    1
    15     5    53    1
    16     5    32    1
    17    29    15    2
    18    29     1    1
    19     4    49    1
    20     4    31    1
    21    41     1    1
    22    15     9    1
    23    20    32    1
    24    20    83    1
    25     1    40    1
    26     1    42    1
    27    62     8    1
    28    32    21    2
    29    19    31    2
    30    19    81    1
    31    78    17    1
    32    31    18    1
    33    64     9    1
    34    66    10    1
    35    74    14    1
    36     9    65    1
    37     9    16    1
    38    91    26    1
    39     8    61    1
    40     8    63    1
    41     8    39    1
    42    14    26   ar
    43    14    25   ar
    44    26    36   ar
    45    17    10    1
    46    17    30    2
    47    21    84    1
    48    21    12    1
    49    10    18    1
    50    10    67    1
    51    90    25    1
    52    18    79    1
    53    18    80    1
    54    25    35   ar
    55    71    12    1
    56    36    39    1
    57    36    37   ar
    58    93    28    1
    59    16    77    1
    60    16    30    1
    61    16    76    1
    62    70    12    1
    63    12    22    1
    64    35    37   ar
    65    35    28    1
    66    30     3    1
    67    37    38    1
    68    94    28    1
    69    28    27    1
    70    38    95    1
    71    59     7    1
    72    58     7    1
    73    56     6    1
    74    22    86    1
    75    22    85    1
    76    22    33    1
    77     7    60    1
    78     7    34    1
    79     3    46    1
    80     3    47    1
    81     3    48    1
    82    27    34    2
    83    27    92    1
    84     6    57    1
    85     6    33    1
    86     6    55    1
    87    33    23    2
    88    34    24    1
    89    23    87    1
    90    23    13    1
    91    72    13    1
    92    24    13    1
    93    24    89    1
    94    24    88    1
    95    13    73    1
