@<TRIPOS>MOLECULE
WWEOGFZEFHPUAM-UQCJFRAESA-J	11164715	-4135.279480895995
 92 93 0 0 0
SMALL
MULLIKEN NwChem

@<TRIPOS>ATOM
      1 C          10.9796    3.6246   -2.2841 C.3     1  LIG1      -0.45999999999999996
      2 C           2.1690   -3.2668    0.3473 C.3     1  LIG1      -0.4800000000000004
      3 C           3.0007   -2.1438    2.4400 C.3     1  LIG1      -0.46999999999999975
      4 C           8.0274   -1.6678   -0.2818 C.3     1  LIG1       -0.3200000000000003
      5 C           6.6200   -1.1849   -0.7303 C.3     1  LIG1       -0.13999999999999968
      6 C          10.3321    0.5305    1.6566 C.3     1  LIG1       -0.1299999999999999
      7 C           9.7191    1.9449    1.6641 C.3     1  LIG1       -0.4400000000000004
      8 C          12.2233    1.6309   -1.3306 C.3     1  LIG1       -0.03000000000000025
      9 C          -3.8581    1.3577   -0.6809 C.3     1  LIG1       -0.08999999999999986
     10 C           3.1224   -0.9587    0.2284 C.3     1  LIG1       -0.07000000000000028
     11 C          -8.7126    0.7936   -3.1664 C.ar    1  LIG1       0.15000000000000036
     12 C          -9.4742    2.3835    0.8026 C.ar    1  LIG1       0.23000000000000043
     13 C          11.1883    2.7584   -1.0379 C.3     1  LIG1       -0.1900000000000004
     14 C          -4.7852    1.5996    0.5165 C.3     1  LIG1       0.1200000000000001
     15 C           9.0145   -0.5690    0.1038 C.2     1  LIG1           0.5
     16 C         -10.1075    1.7331   -1.1161 C.ar    1  LIG1       0.20000000000000018
     17 C          -6.7709    0.3090    1.0436 C.3     1  LIG1       0.11000000000000032
     18 C          -5.2534    0.3396    1.3214 C.3     1  LIG1       0.04999999999999982
     19 C           4.6788   -2.9292    0.7441 C.3     1  LIG1       0.04999999999999982
     20 C         -10.7810    1.1883   -2.2258 C.ar    1  LIG1       0.4400000000000004
     21 C          -8.7106    1.6206   -1.1164 C.ar    1  LIG1       0.5300000000000002
     22 C           5.1388   -3.0909   -0.7525 C.2     1  LIG1       0.46999999999999975
     23 C          -7.0495    1.8064    0.8147 C.3     1  LIG1       0.2599999999999998
     24 C          11.6633    3.5925    0.1357 C.2     1  LIG1       0.28000000000000025
     25 C           3.2370   -2.3211    0.9273 C.3     1  LIG1       0.08000000000000007
     26 N         -12.1470    1.0594   -2.2445 N.pl3   1  LIG1      -0.7999999999999998
     27 N           9.3371   -0.4819    1.3841 N.am    1  LIG1      -0.5999999999999996
     28 N           5.9031   -2.2527   -1.4051 N.am    1  LIG1      -0.5999999999999996
     29 N         -10.0541    0.7630   -3.2787 N.ar    1  LIG1      -0.5300000000000002
     30 N          -7.9597    1.1626   -2.1293 N.ar    1  LIG1      -0.5300000000000002
     31 N         -10.5688    2.2269    0.0929 N.ar    1  LIG1      -0.5899999999999999
     32 N          -8.3154    2.0551    0.1406 N.ar    1  LIG1         -0.5
     33 O          11.6945    0.6671   -2.1984 O.3     1  LIG1      -0.7100000000000009
     34 O           9.4535    0.1841   -0.8520 O.2     1  LIG1      -0.6899999999999995
     35 O          -7.5493   -0.2570    2.0579 O.3     1  LIG1      -0.6999999999999993
     36 O           4.6910   -4.2512    1.2928 O.3     1  LIG1      -0.7100000000000009
     37 O           4.6692   -4.1791   -1.2490 O.2     1  LIG1      -0.7200000000000006
     38 O          12.5392    4.4385    0.0324 O.2     1  LIG1      -0.5099999999999998
     39 O         -12.6572   -0.0869    0.3349 O.3     2  LIG2      -0.6500000000000004
     40 O         -10.2212   -0.5836    1.0874 O.3     2  LIG2      -0.6600000000000001
     41 O         -11.8372    0.7126    2.6807 O.2     2  LIG2      -0.6400000000000006
     42 O          -2.2994    0.5567    2.0766 O.3     1  LIG1      -0.6600000000000001
     43 O          -1.8825   -1.0018   -0.0025 O.2     1  LIG1      -0.7100000000000009
     44 O           0.2919   -0.6042   -1.4305 O.3     1  LIG1      -0.7200000000000006
     45 O           1.6254    1.5894   -1.1292 O.2     1  LIG1      -0.5999999999999996
     46 O          -2.4837    1.4921   -0.3296 O.3     1  LIG1      -0.5600000000000005
     47 O           1.8504   -0.3460    0.6139 O.3     1  LIG1      -0.5399999999999991
     48 O          -5.9820    2.2789    0.0408 O.3     1  LIG1      -0.5500000000000007
     49 O          -4.9898    0.4941    2.6965 O.3     1  LIG1      -0.7100000000000009
     50 O          -0.2521    0.9237    0.5680 O.3     1  LIG1      -0.6199999999999992
     51 P         -11.5582    0.0591    1.3627 P.3     2  LIG2       1.0299999999999994
     52 P          -1.8064    0.3541    0.6706 P.3     1  LIG1       1.1899999999999995
     53 P           0.9488    0.4667   -0.4394 P.3     1  LIG1       1.1999999999999993
     54 S          10.9558    3.3369    1.7835 S.3     1  LIG1      0.03999999999999915
     55 H          10.7632    2.9618   -3.1275 H       1  LIG1       0.15000000000000002
     56 H          10.1400    4.3187   -2.1582 H       1  LIG1       0.16000000000000003
     57 H          11.8815    4.2094   -2.5017 H       1  LIG1       0.15000000000000002
     58 H           2.1791   -4.2138    0.8968 H       1  LIG1          0.14
     59 H           1.1733   -2.8170    0.4299 H       1  LIG1       0.15000000000000002
     60 H           2.3904   -3.4893   -0.6997 H       1  LIG1       0.15000000000000002
     61 H           1.9813   -1.8008    2.6454 H       1  LIG1       0.15000000000000002
     62 H           3.1714   -3.1022    2.9416 H       1  LIG1       0.15000000000000002
     63 H           3.6987   -1.4067    2.8615 H       1  LIG1          0.14
     64 H           8.4501   -2.2123   -1.1370 H       1  LIG1          0.12
     65 H           7.9106   -2.3749    0.5474 H       1  LIG1       0.10999999999999999
     66 H           6.7690   -0.3565   -1.4384 H       1  LIG1       0.09999999999999998
     67 H           6.1190   -0.7398    0.1509 H       1  LIG1          0.12
     68 H          11.1518    0.5252    0.9205 H       1  LIG1          0.13
     69 H          10.7877    0.3540    2.6454 H       1  LIG1       0.10999999999999999
     70 H           9.1071    2.0889    0.7734 H       1  LIG1       0.20999999999999996
     71 H           9.0745    2.0866    2.5386 H       1  LIG1       0.18999999999999995
     72 H          12.5557    1.1932   -0.3736 H       1  LIG1          0.13
     73 H          13.1104    2.0766   -1.8073 H       1  LIG1          0.14
     74 H          -4.0612    2.1288   -1.4311 H       1  LIG1       0.18000000000000005
     75 H          -4.0473    0.3758   -1.1368 H       1  LIG1       0.17000000000000004
     76 H           3.9150   -0.2734    0.5465 H       1  LIG1       0.18000000000000005
     77 H           3.1858   -1.0736   -0.8577 H       1  LIG1       0.17000000000000004
     78 H          -8.1668    0.4394   -4.0406 H       1  LIG1       0.17000000000000004
     79 H          -9.4548    2.6897    1.8397 H       1  LIG1       0.21999999999999997
     80 H          10.2670    2.2230   -0.8021 H       1  LIG1       0.18999999999999995
     81 H          -4.2671    2.2631    1.2176 H       1  LIG1       0.16000000000000003
     82 H          -6.9233   -0.1859    0.0713 H       1  LIG1       0.16000000000000003
     83 H          -4.7668   -0.5645    0.9293 H       1  LIG1       0.16000000000000003
     84 H           5.3805   -2.3194    1.3262 H       1  LIG1          0.12
     85 H          -7.1134    2.3029    1.7965 H       1  LIG1       0.18000000000000005
     86 H         -12.5182    0.8116   -1.3134 H       1  LIG1          0.39
     87 H         -12.4370    0.4019   -2.9607 H       1  LIG1          0.35
     88 H          10.8659    0.3185   -1.7444 H       1  LIG1       0.43000000000000005
     89 H          -8.4658   -0.3866    1.7179 H       1  LIG1       0.44999999999999996
     90 H           4.5772   -4.7457    0.4346 H       1  LIG1           0.4
     91 H          -4.0023    0.4917    2.7292 H       1  LIG1       0.43999999999999995
     92 H          -0.5386   -0.9879   -1.0049 H       1  LIG1           0.48
@<TRIPOS>BOND
     1    78    11    1
     2    29    11   ar
     3    29    20   ar
     4    11    30   ar
     5    55     1    1
     6    87    26    1
     7    57     1    1
     8     1    56    1
     9     1    13    1
    10    26    20    1
    11    26    86    1
    12    20    16   ar
    13    33    88    1
    14    33     8    1
    15    30    21   ar
    16    73     8    1
    17    66     5    1
    18    74     9    1
    19    44    92    1
    20    44    53    1
    21    28    22   am
    22    28     5    1
    23     8    13    1
    24     8    72    1
    25    37    22    2
    26    64     4    1
    27    75     9    1
    28    45    53    2
    29    21    16   ar
    30    21    32   ar
    31    16    31   ar
    32    13    80    1
    33    13    24    1
    34    77    10    1
    35    34    15    2
    36    22    19    1
    37     5     4    1
    38     5    67    1
    39    60     2    1
    40     9    46    1
    41     9    14    1
    42    53    50    1
    43    53    47    1
    44    46    52    1
    45     4    15    1
    46     4    65    1
    47    43    52    2
    48    38    24    2
    49    48    14    1
    50    48    23    1
    51    82    17    1
    52    31    12   ar
    53    15    27   am
    54    24    54    1
    55    32    12   ar
    56    32    23    1
    57    10    76    1
    58    10    47    1
    59    10    25    1
    60    39    51    1
    61     2    59    1
    62     2    58    1
    63     2    25    1
    64    90    36    1
    65    14    81    1
    66    14    18    1
    67    50    52    1
    68    52    42    1
    69    19    25    1
    70    19    36    1
    71    19    84    1
    72    70     7    1
    73    12    79    1
    74    23    17    1
    75    23    85    1
    76    68     6    1
    77    25     3    1
    78    83    18    1
    79    17    18    1
    80    17    35    1
    81    40    51    1
    82    18    49    1
    83    51    41    2
    84    27     6    1
    85     6     7    1
    86     6    69    1
    87     7    54    1
    88     7    71    1
    89    89    35    1
    90     3    61    1
    91     3    63    1
    92     3    62    1
    93    49    91    1
