@<TRIPOS>MOLECULE
WWJJVKAEQGGYHJ-UHFFFAOYSA-M	6045443	-1045.1903636164752
 13 12 0 0 0
SMALL
MULLIKEN NwChem

@<TRIPOS>ATOM
      1 C          -1.1793    1.9446   -1.1104 C.3     1  LIG1       -0.21999999999999975
      2 C           1.9414    1.0981    0.4753 C.3     1  LIG1       -0.23000000000000043
      3 O          -0.7110   -0.9758   -1.3886 O.2     1  LIG1      -0.6500000000000004
      4 O          -1.0299    1.1640    0.0666 O.3     1  LIG1      -0.5800000000000001
      5 O           1.2911    0.2868   -0.4872 O.3     1  LIG1      -0.5600000000000005
      6 P          -0.2386   -0.3037   -0.1362 P.3     1  LIG1       0.9700000000000006
      7 S          -0.2615   -1.1732    1.6586 S.3     1  LIG1       -0.6999999999999993
      8 H          -1.8484    2.7799   -0.8671 H       1  LIG1       0.17000000000000004
      9 H          -1.6101    1.3533   -1.9277 H       1  LIG1       0.16000000000000003
     10 H          -0.2138    2.3500   -1.4504 H       1  LIG1       0.16000000000000003
     11 H           1.3859    2.0301    0.6575 H       1  LIG1       0.16000000000000003
     12 H           2.0522    0.5721    1.4328 H       1  LIG1       0.16000000000000003
     13 H           2.9341    1.3453    0.0765 H       1  LIG1       0.17000000000000004
@<TRIPOS>BOND
     1     9     1    1
     2    10     1    1
     3     3     6    2
     4     1     8    1
     5     1     4    1
     6     5     6    1
     7     5     2    1
     8     6     4    1
     9     6     7    1
    10    13     2    1
    11     2    11    1
    12     2    12    1
