@<TRIPOS>MOLECULE
WWTBBRMTEFBUND-WKYRUEGDSA-N	6045444	-1283.75643994102
 79 82 0 0 0
SMALL
MULLIKEN NwChem

@<TRIPOS>ATOM
      1 C           5.7366   -4.9217    2.1533 C.3     1  LIG1      -0.45999999999999996
      2 C           4.8455   -3.8787    4.2728 C.3     1  LIG1      -0.45999999999999996
      3 C           4.5956    0.5135    0.8867 C.3     1  LIG1      -0.4800000000000004
      4 C           1.3155    0.1855    1.6627 C.3     1  LIG1      -0.4900000000000002
      5 C          -2.3443    2.5489   -2.4286 C.3     1  LIG1      -0.4900000000000002
      6 C          -6.1737    0.6406   -0.5942 C.3     1  LIG1      -0.4900000000000002
      7 C           6.2400   -2.0432    1.0803 C.3     1  LIG1      -0.28000000000000025
      8 C           5.9460   -2.4062    2.5464 C.3     1  LIG1      -0.2599999999999998
      9 C           4.9967   -1.8852    0.1869 C.3     1  LIG1      -0.2699999999999996
     10 C          -2.1557   -1.0137   -1.0933 C.3     1  LIG1      -0.33999999999999986
     11 C           2.2329   -2.1266   -0.8419 C.3     1  LIG1      -0.29000000000000004
     12 C           0.8713   -1.7771   -1.4451 C.3     1  LIG1      -0.29000000000000004
     13 C          -3.3885   -0.2823   -1.6331 C.3     1  LIG1      -0.33000000000000007
     14 C           0.0853    2.1073   -0.3710 C.3     1  LIG1      -0.3600000000000003
     15 C          -3.9940    3.8215   -0.0965 C.3     1  LIG1      -0.2999999999999998
     16 C           1.4106    1.3774   -0.5740 C.3     1  LIG1      -0.2999999999999998
     17 C          -2.6225    3.1420    0.0157 C.3     1  LIG1      -0.3099999999999996
     18 C          -5.3260    2.2618   -2.3282 C.3     1  LIG1       0.09999999999999964
     19 C           5.0951   -3.6715    2.7719 C.3     1  LIG1      -0.07000000000000028
     20 C           3.9439   -0.8633    0.6727 C.3     1  LIG1      -0.08000000000000007
     21 C          -0.9956   -0.1042   -0.7451 C.2     1  LIG1      0.08999999999999986
     22 C           2.7631   -0.7728   -0.3220 C.3     1  LIG1      -0.09999999999999964
     23 C           0.2667   -0.8556   -0.3661 C.3     1  LIG1      -0.17999999999999972
     24 C          -1.1132    1.2366   -0.6954 C.2     1  LIG1      0.08000000000000007
     25 C          -3.6321    0.9896   -0.8101 C.3     1  LIG1      -0.1200000000000001
     26 C          -5.1450    2.8296    0.0782 C.3     1  LIG1       0.13999999999999968
     27 C           1.4639    0.0140    0.1402 C.3     1  LIG1      0.1200000000000001
     28 C          -2.4323    1.9746   -0.9918 C.3     1  LIG1      0.04999999999999982
     29 C          -5.0547    1.6529   -0.9438 C.3     1  LIG1       -0.05999999999999961
     30 O          -5.4904    1.3593   -3.2659 O.3     1  LIG1      -0.5199999999999996
     31 O          -5.2314    2.3613    1.4290 O.3     1  LIG1      -0.6899999999999995
     32 H           6.7373   -5.0909    2.5728 H       1  LIG1          0.14
     33 H           5.8410   -4.8354    1.0663 H       1  LIG1       0.15000000000000002
     34 H           5.1345   -5.8148    2.3582 H       1  LIG1          0.14
     35 H           5.7914   -4.0471    4.8042 H       1  LIG1          0.14
     36 H           4.3636   -3.0018    4.7219 H       1  LIG1          0.14
     37 H           4.2023   -4.7479    4.4549 H       1  LIG1          0.14
     38 H           5.0871    0.8488   -0.0362 H       1  LIG1          0.14
     39 H           3.8663    1.2774    1.1653 H       1  LIG1       0.16000000000000003
     40 H           5.3537    0.4847    1.6758 H       1  LIG1       0.15000000000000002
     41 H           0.3095    0.5490    1.9009 H       1  LIG1       0.15000000000000002
     42 H           1.4408   -0.7713    2.1815 H       1  LIG1       0.15000000000000002
     43 H           2.0334    0.8944    2.0861 H       1  LIG1       0.15000000000000002
     44 H          -1.5208    3.2675   -2.5022 H       1  LIG1       0.15000000000000002
     45 H          -2.1537    1.7598   -3.1616 H       1  LIG1       0.15000000000000002
     46 H          -3.2657    3.0651   -2.7217 H       1  LIG1       0.15000000000000002
     47 H          -6.2330   -0.2082   -1.2846 H       1  LIG1       0.16000000000000003
     48 H          -6.0143    0.2478    0.4119 H       1  LIG1       0.17000000000000004
     49 H          -7.1491    1.1399   -0.6063 H       1  LIG1       0.16000000000000003
     50 H           6.8323   -1.1199    1.0633 H       1  LIG1          0.13
     51 H           6.8845   -2.8125    0.6357 H       1  LIG1          0.13
     52 H           5.4448   -1.5598    3.0362 H       1  LIG1          0.13
     53 H           6.9031   -2.5335    3.0740 H       1  LIG1          0.12
     54 H           5.3242   -1.5963   -0.8230 H       1  LIG1          0.12
     55 H           4.5224   -2.8672    0.0806 H       1  LIG1       0.15000000000000002
     56 H          -2.4345   -1.5839   -0.1920 H       1  LIG1       0.15000000000000002
     57 H          -1.8302   -1.7667   -1.8221 H       1  LIG1       0.15000000000000002
     58 H           2.0976   -2.8307   -0.0071 H       1  LIG1          0.13
     59 H           2.9106   -2.5998   -1.5591 H       1  LIG1          0.14
     60 H           0.2569   -2.6581   -1.6569 H       1  LIG1          0.14
     61 H           0.9991   -1.2265   -2.3872 H       1  LIG1          0.13
     62 H          -4.2443   -0.9652   -1.5846 H       1  LIG1       0.15000000000000002
     63 H          -3.2340   -0.0317   -2.6889 H       1  LIG1       0.15000000000000002
     64 H           0.0104    2.4839    0.6592 H       1  LIG1       0.15000000000000002
     65 H           0.0767    3.0033   -1.0043 H       1  LIG1       0.15000000000000002
     66 H          -4.0881    4.6019    0.6677 H       1  LIG1          0.14
     67 H          -4.0997    4.3044   -1.0727 H       1  LIG1       0.15000000000000002
     68 H           2.2458    2.0091   -0.2473 H       1  LIG1          0.13
     69 H           1.5470    1.2098   -1.6509 H       1  LIG1          0.13
     70 H          -1.8401    3.8953   -0.1205 H       1  LIG1       0.15000000000000002
     71 H          -2.4793    2.7500    1.0355 H       1  LIG1          0.14
     72 H          -5.4144    0.4199   -2.9642 H       1  LIG1       0.43999999999999995
     73 H           4.1173   -3.5196    2.2910 H       1  LIG1          0.13
     74 H           3.5566   -1.2194    1.6365 H       1  LIG1          0.13
     75 H           3.1528   -0.2405   -1.2034 H       1  LIG1          0.12
     76 H          -0.0195   -1.5259    0.4631 H       1  LIG1          0.13
     77 H          -3.5952    0.6669    0.2437 H       1  LIG1          0.13
     78 H          -6.0963    3.3446   -0.0937 H       1  LIG1          0.13
     79 H          -4.3452    2.0871    1.7092 H       1  LIG1       0.43000000000000005
@<TRIPOS>BOND
     1    30    72    1
     2    30    18    1
     3    45     5    1
     4    46     5    1
     5    63    13    1
     6    44     5    1
     7     5    28    1
     8    61    12    1
     9    18    29    1
    10    57    10    1
    11    60    12    1
    12    69    16    1
    13    13    62    1
    14    13    10    1
    15    13    25    1
    16    59    11    1
    17    12    11    1
    18    12    23    1
    19    47     6    1
    20    75    22    1
    21    10    21    1
    22    10    56    1
    23    67    15    1
    24    65    14    1
    25    28    25    1
    26    28    24    1
    27    28    17    1
    28    29    25    1
    29    29     6    1
    30    29    26    1
    31    11    22    1
    32    11    58    1
    33    54     9    1
    34    25    77    1
    35    21    24    2
    36    21    23    1
    37    24    14    1
    38    49     6    1
    39     6    48    1
    40    16    14    1
    41    16    68    1
    42    16    27    1
    43    14    64    1
    44    23    27    1
    45    23    76    1
    46    22    27    1
    47    22    20    1
    48    70    17    1
    49    15    17    1
    50    15    26    1
    51    15    66    1
    52    78    26    1
    53    38     3    1
    54    17    71    1
    55    26    31    1
    56    55     9    1
    57    27     4    1
    58     9    20    1
    59     9     7    1
    60    51     7    1
    61    20     3    1
    62    20    74    1
    63     3    39    1
    64     3    40    1
    65    50     7    1
    66    33     1    1
    67     7     8    1
    68    31    79    1
    69     4    41    1
    70     4    43    1
    71     4    42    1
    72     1    34    1
    73     1    32    1
    74     1    19    1
    75    73    19    1
    76     8    19    1
    77     8    52    1
    78     8    53    1
    79    19     2    1
    80     2    37    1
    81     2    36    1
    82     2    35    1
