@<TRIPOS>MOLECULE
WWUZIQQURGPMPG-KRWOKUGFSA-O	6045446	-913.3843220618394
 59 58 0 0 0
SMALL
MULLIKEN NwChem

@<TRIPOS>ATOM
      1 C1         -7.0205    3.5296   -3.7276 C.3     1  <1>       -0.45999999999999996
      2 C2         -6.5774    2.1002   -3.3942 C.3     1  <1>       -0.2599999999999998
      3 C3         -5.2634    1.6814   -4.0755 C.3     1  <1>       -0.2599999999999998
      4 C4         -4.0406    2.5513   -3.7331 C.3     1  <1>       -0.2699999999999996
      5 C5         -3.7038    2.6435   -2.2345 C.3     1  <1>       -0.2699999999999996
      6 C6         -3.4538    1.2937   -1.5380 C.3     1  <1>       -0.2699999999999996
      7 C7         -2.3390    0.4352   -2.1616 C.3     1  <1>       -0.2699999999999996
      8 C8         -0.9653    1.1213   -2.2612 C.3     1  <1>       -0.2699999999999996
      9 C9         -0.3960    1.6367   -0.9283 C.3     1  <1>       -0.2699999999999996
     10 C10        -0.2297    0.5681    0.1666 C.3     1  <1>       -0.2699999999999996
     11 C11         0.6549   -0.6292   -0.2240 C.3     1  <1>       -0.2699999999999996
     12 C12         2.0715   -0.2655   -0.7011 C.3     1  <1>       -0.2599999999999998
     13 C13         2.9003    0.5936    0.2839 C.3     1  <1>       -0.3200000000000003
     14 C14         3.0339   -0.0427    1.6357 C.2     1  <1>       -0.08999999999999986
     15 C15         4.1706   -0.5254    2.1480 C.2     1  <1>       -0.16999999999999993
     16 C16         3.1773   -3.3464    2.5649 C.3     1  <1>        -0.05999999999999961
     17 C17         4.3404   -2.7234    3.3629 C.3     1  <1>       -0.040000000000000036
     18 C18         4.2733   -1.1893    3.4992 C.3     1  <1>        0.11000000000000032
     19 N1          4.2313   -3.3237    4.7586 N.4     1  <1>        -0.7300000000000004
     20 O1          3.0887   -4.7336    2.8913 O.3     1  <1>       -0.6600000000000001
     21 O2          3.1479   -0.9814    4.3538 O.3     1  <1>       -0.6699999999999999
     22 H1         -6.3183    4.2739   -3.3348 H       1  <1>        0.15000000000000002
     23 H2         -8.0051    3.7488   -3.3000 H       1  <1>           0.14
     24 H3         -7.0871    3.6772   -4.8129 H       1  <1>           0.14
     25 H4         -6.4843    1.9920   -2.3046 H       1  <1>           0.14
     26 H5         -7.3645    1.3978   -3.6992 H       1  <1>           0.13
     27 H6         -5.0493    0.6340   -3.8228 H       1  <1>           0.14
     28 H7         -5.4082    1.7042   -5.1647 H       1  <1>           0.13
     29 H8         -3.1717    2.1617   -4.2808 H       1  <1>           0.14
     30 H9         -4.1981    3.5678   -4.1162 H       1  <1>           0.13
     31 H10        -2.8213    3.2868   -2.1143 H       1  <1>           0.14
     32 H11        -4.5179    3.1580   -1.7079 H       1  <1>           0.13
     33 H12        -3.2245    1.4829   -0.4803 H       1  <1>           0.13
     34 H13        -4.3810    0.7065   -1.5381 H       1  <1>           0.14
     35 H14        -2.2453   -0.4930   -1.5805 H       1  <1>           0.13
     36 H15        -2.6415    0.1226   -3.1691 H       1  <1>           0.14
     37 H16        -0.2546    0.4192   -2.7190 H       1  <1>           0.13
     38 H17        -1.0306    1.9678   -2.9560 H       1  <1>           0.14
     39 H18         0.5723    2.1178   -1.1239 H       1  <1>           0.14
     40 H19        -1.0450    2.4299   -0.5373 H       1  <1>           0.14
     41 H20         0.1764    1.0504    1.0678 H       1  <1>           0.14
     42 H21        -1.2162    0.1864    0.4573 H       1  <1>           0.14
     43 H22         0.7193   -1.3174    0.6319 H       1  <1>           0.14
     44 H23         0.1645   -1.1988   -1.0225 H       1  <1>           0.14
     45 H24         2.6273   -1.1890   -0.9137 H       1  <1>           0.14
     46 H25         2.0114    0.2803   -1.6499 H       1  <1>           0.14
     47 H26         3.8927    0.7789   -0.1437 H       1  <1>        0.15000000000000002
     48 H27         2.4168    1.5723    0.3997 H       1  <1>        0.16000000000000003
     49 H28         2.1189   -0.1281    2.2215 H       1  <1>        0.15000000000000002
     50 H29         5.1055   -0.4505    1.5937 H       1  <1>        0.16000000000000003
     51 H30         2.2360   -2.8734    2.8590 H       1  <1>        0.18000000000000005
     52 H31         3.3301   -3.1652    1.4988 H       1  <1>        0.19999999999999996
     53 H32         5.3035   -3.0438    2.9569 H       1  <1>        0.21999999999999997
     54 H33         5.1944   -0.8497    4.0035 H       1  <1>        0.18000000000000005
     55 H34         3.9005   -4.2986    4.6373 H       1  <1>       0.43999999999999995
     56 H35         5.1110   -3.3077    5.2821 H       1  <1>       0.44999999999999996
     57 H36         3.5292   -2.7677    5.2730 H       1  <1>       0.43999999999999995
     58 H37         3.4856   -5.2702    2.1886 H       1  <1>        0.44999999999999996
     59 H38         3.0132   -0.0276    4.4765 H       1  <1>        0.43999999999999995
@<TRIPOS>BOND
     1    28     3    1
     2    24     1    1
     3    29     4    1
     4    30     4    1
     5     3    27    1
     6     3     4    1
     7     3     2    1
     8     4     5    1
     9     1     2    1
    10     1    22    1
    11     1    23    1
    12    26     2    1
    13     2    25    1
    14    36     7    1
    15    38     8    1
    16    37     8    1
    17     8     7    1
    18     8     9    1
    19     5    31    1
    20     5    32    1
    21     5     6    1
    22     7    35    1
    23     7     6    1
    24    46    12    1
    25    34     6    1
    26     6    33    1
    27    39     9    1
    28    44    11    1
    29     9    40    1
    30     9    10    1
    31    45    12    1
    32    12    11    1
    33    12    13    1
    34    11    10    1
    35    11    43    1
    36    47    13    1
    37    10    42    1
    38    10    41    1
    39    13    48    1
    40    13    14    1
    41    52    16    1
    42    50    15    1
    43    14    15    2
    44    14    49    1
    45    15    18    1
    46    58    20    1
    47    16    51    1
    48    16    20    1
    49    16    17    1
    50    53    17    1
    51    17    18    1
    52    17    19    1
    53    18    54    1
    54    18    21    1
    55    21    59    1
    56    55    19    1
    57    19    57    1
    58    19    56    1
