@<TRIPOS>MOLECULE
WWZKQHOCKIZLMA-UHFFFAOYSA-M	6045447	-464.3128693394405
 25 24 0 0 0
SMALL
MULLIKEN NwChem

@<TRIPOS>ATOM
      1 C           1.4533    1.2494    3.4453 C.3     1  LIG1      -0.45999999999999996
      2 C           1.2114    1.9085    2.0821 C.3     1  LIG1        -0.25
      3 C           1.6258    1.0361    0.8845 C.3     1  LIG1      -0.2599999999999998
      4 C           0.9048   -0.3182    0.7713 C.3     1  LIG1      -0.2699999999999996
      5 C          -0.6308   -0.2368    0.7180 C.3     1  LIG1      -0.2599999999999998
      6 C          -1.1977    0.6194   -0.4310 C.3     1  LIG1        -0.25
      7 C          -0.6223    0.2523   -1.8092 C.3     1  LIG1       -0.33999999999999986
      8 C          -0.7185   -1.2960   -2.0621 C.2     1  LIG1       0.5300000000000002
      9 O          -1.8842   -1.7644   -1.9880 O.co2   1  LIG1      -0.6899999999999995
     10 O           0.3737   -1.8890   -2.2628 O.co2   1  LIG1      -0.6799999999999997
     11 H           0.8476    0.3440    3.5599 H       1  LIG1       0.15000000000000002
     12 H           1.2012    1.9271    4.2715 H       1  LIG1          0.14
     13 H           2.5062    0.9581    3.5599 H       1  LIG1          0.14
     14 H           0.1487    2.1692    1.9916 H       1  LIG1          0.14
     15 H           1.7631    2.8598    2.0405 H       1  LIG1          0.13
     16 H           1.4546    1.6076   -0.0367 H       1  LIG1          0.13
     17 H           2.7119    0.8598    0.9368 H       1  LIG1          0.12
     18 H           1.2412   -0.8331   -0.1366 H       1  LIG1          0.13
     19 H           1.1987   -0.9584    1.6172 H       1  LIG1          0.12
     20 H          -1.0180   -1.2532    0.5840 H       1  LIG1          0.12
     21 H          -1.0277    0.1302    1.6789 H       1  LIG1          0.13
     22 H          -2.2809    0.4512   -0.4665 H       1  LIG1          0.12
     23 H          -1.0410    1.6905   -0.2176 H       1  LIG1          0.13
     24 H          -1.2008    0.7820   -2.5812 H       1  LIG1          0.12
     25 H           0.4229    0.5752   -1.9000 H       1  LIG1       0.10999999999999999
@<TRIPOS>BOND
     1    24     7    1
     2    10     8   ar
     3     8     9   ar
     4     8     7    1
     5    25     7    1
     6     7     6    1
     7    22     6    1
     8     6    23    1
     9     6     5    1
    10    18     4    1
    11    16     3    1
    12    20     5    1
    13     5     4    1
    14     5    21    1
    15     4     3    1
    16     4    19    1
    17     3    17    1
    18     3     2    1
    19    14     2    1
    20    15     2    1
    21     2     1    1
    22     1    13    1
    23     1    11    1
    24     1    12    1
