@<TRIPOS>MOLECULE
WYMSBXTXOHUIGT-UHFFFAOYSA-N	6045448	-1236.7357307668515
 32 32 0 0 0
SMALL
MULLIKEN NwChem

@<TRIPOS>ATOM
      1 C          -4.2796    3.4518    1.9190 C.3     1  LIG1      -0.45999999999999996
      2 C          -0.8439    1.3025   -3.0124 C.3     1  LIG1      -0.46999999999999975
      3 C          -3.1512    2.4924    2.2478 C.3     1  LIG1       -0.05999999999999961
      4 C          -1.2991    2.4753   -2.1611 C.3     1  LIG1       -0.05999999999999961
      5 C           2.6042   -1.0507    0.5498 C.ar    1  LIG1      -0.16000000000000014
      6 C           0.7665   -2.1397   -0.6250 C.ar    1  LIG1      -0.16999999999999993
      7 C           1.7265   -0.0770    1.0095 C.ar    1  LIG1      -0.17999999999999972
      8 C          -0.1144   -1.1682   -0.1596 C.ar    1  LIG1      -0.17999999999999972
      9 C           2.1124   -2.0693   -0.2672 C.ar    1  LIG1       0.29000000000000004
     10 C           0.3776   -0.1362    0.6484 C.ar    1  LIG1       0.3600000000000003
     11 N           3.0394   -3.0953   -0.7620 N.pl3   1  LIG1       0.3899999999999997
     12 O           2.5852   -3.9691   -1.5022 O.2     1  LIG1      -0.4299999999999997
     13 O           4.2170   -3.0228   -0.4088 O.2     1  LIG1      -0.4299999999999997
     14 O          -2.6961    0.6802   -0.1897 O.2     1  LIG1      -0.6300000000000008
     15 O          -2.0509    2.7205    1.3182 O.3     1  LIG1      -0.5099999999999998
     16 O          -0.7712    2.3475   -0.8060 O.3     1  LIG1      -0.5299999999999994
     17 O          -0.4381    0.8510    1.1701 O.3     1  LIG1      -0.5800000000000001
     18 P          -1.6199    1.5723    0.3014 P.3     1  LIG1       1.2400000000000002
     19 H          -5.0963    3.3323    2.6410 H       1  LIG1       0.17000000000000004
     20 H          -4.6680    3.2509    0.9148 H       1  LIG1       0.17000000000000004
     21 H          -3.9275    4.4875    1.9589 H       1  LIG1       0.17000000000000004
     22 H          -1.2826    0.3724   -2.6399 H       1  LIG1       0.17000000000000004
     23 H          -1.1591    1.4455   -4.0531 H       1  LIG1       0.17000000000000004
     24 H           0.2473    1.2153   -2.9843 H       1  LIG1       0.17000000000000004
     25 H          -2.7410    2.6681    3.2467 H       1  LIG1       0.18999999999999995
     26 H          -3.4847    1.4530    2.1789 H       1  LIG1       0.18000000000000005
     27 H          -2.3912    2.5456   -2.1255 H       1  LIG1       0.18000000000000005
     28 H          -0.8966    3.4253   -2.5225 H       1  LIG1       0.18999999999999995
     29 H           3.6569   -1.0304    0.8046 H       1  LIG1       0.19999999999999996
     30 H           0.4237   -2.9517   -1.2539 H       1  LIG1       0.19999999999999996
     31 H           2.0653    0.7354    1.6424 H       1  LIG1       0.18999999999999995
     32 H          -1.1687   -1.2040   -0.4086 H       1  LIG1       0.20999999999999996
@<TRIPOS>BOND
     1    23     2    1
     2     2    24    1
     3     2    22    1
     4     2     4    1
     5    28     4    1
     6     4    27    1
     7     4    16    1
     8    12    11    2
     9    30     6    1
    10    16    18    1
    11    11    13    2
    12    11     9    1
    13     6     9   ar
    14     6     8   ar
    15    32     8    1
    16     9     5   ar
    17    14    18    2
    18     8    10   ar
    19    18    17    1
    20    18    15    1
    21     5    29    1
    22     5     7   ar
    23    10     7   ar
    24    10    17    1
    25    20     1    1
    26     7    31    1
    27    15     3    1
    28     1    21    1
    29     1     3    1
    30     1    19    1
    31    26     3    1
    32     3    25    1
