@<TRIPOS>MOLECULE
WYROLENTHWJFLR-ACLDMZEESA-O	6045449	-965.9673289356665
 36 38 0 0 0
SMALL
MULLIKEN NwChem

@<TRIPOS>ATOM
      1 C           1.4318   -0.8751   -2.3993 C.2     1  LIG1      -0.1299999999999999
      2 C           1.8880   -1.8465   -3.1956 C.2     1  LIG1      -0.11000000000000032
      3 C          -0.0145   -1.3343    0.2675 C.3     1  LIG1       -0.20999999999999996
      4 C          -0.4445   -1.1418    2.7989 C.ar    1  LIG1       -0.019999999999999574
      5 C          -0.2347   -0.5994    1.5593 C.ar    1  LIG1      0.04999999999999982
      6 C          -0.0634   -0.9743   -2.2225 C.3     1  LIG1           0.0
      7 C           0.7634   -2.7392   -3.6695 C.3     1  LIG1       0.040000000000000036
      8 C          -0.1536    0.8288    1.7531 C.ar    1  LIG1       -0.019999999999999574
      9 C          -0.3612   -2.4379   -2.6441 C.3     1  LIG1       0.11000000000000032
     10 C          -0.3030    1.0626    3.1162 C.ar    1  LIG1       0.6200000000000001
     11 C          -0.0004    1.9747    0.9098 C.2     1  LIG1       0.5300000000000002
     12 C          -0.0397    3.3723    2.7553 C.3     1  LIG1       0.7699999999999996
     13 N           0.0597    4.6152    3.2601 N.3     1  LIG1      -0.7699999999999996
     14 N          -0.5559   -0.5662   -0.8805 N.3     1  LIG1      -0.6799999999999997
     15 N          -0.4818   -0.1167    3.7534 N.ar    1  LIG1      -0.6600000000000001
     16 N          -0.2569    2.3320    3.6387 N.pl3   1  LIG1      -0.7199999999999998
     17 N           0.0739    3.2048    1.4506 N.2     1  LIG1      -0.5899999999999999
     18 O           0.2822   -2.3028   -4.9553 O.3     1  LIG1      -0.6699999999999999
     19 O          -1.6581   -2.6446   -3.1364 O.3     1  LIG1      -0.6799999999999997
     20 O           0.0606    1.8788   -0.3774 O.2     1  LIG1      -0.6400000000000006
     21 H           2.0202   -0.0641   -1.9782 H       1  LIG1       0.17000000000000004
     22 H           2.9119   -1.9551   -3.5380 H       1  LIG1       0.16000000000000003
     23 H          -0.4403   -2.3422    0.3279 H       1  LIG1       0.19999999999999996
     24 H           1.0604   -1.4528    0.0857 H       1  LIG1       0.19999999999999996
     25 H          -0.5575   -2.1707    3.1069 H       1  LIG1       0.20999999999999996
     26 H          -0.5700   -0.3017   -2.9257 H       1  LIG1       0.18000000000000005
     27 H           1.0197   -3.8049   -3.7065 H       1  LIG1       0.17000000000000004
     28 H          -0.2293   -3.0964   -1.7774 H       1  LIG1       0.17000000000000004
     29 H          -0.0678    4.8411    4.2348 H       1  LIG1       0.41000000000000003
     30 H           0.1768    5.3725    2.6000 H       1  LIG1           0.4
     31 H          -1.5757   -0.6372   -0.8858 H       1  LIG1          0.37
     32 H          -0.6213   -0.2564    4.7447 H       1  LIG1           0.4
     33 H          -0.3368    2.4941    4.6357 H       1  LIG1       0.42000000000000004
     34 H           0.4208   -3.0106   -5.6018 H       1  LIG1       0.43999999999999995
     35 H          -1.6020   -2.4223   -4.0871 H       1  LIG1       0.42000000000000004
     36 H          -0.1881    0.8635   -0.6655 H       1  LIG1           0.49
@<TRIPOS>BOND
     1    34    18    1
     2    18     7    1
     3    35    19    1
     4    27     7    1
     5     7     2    1
     6     7     9    1
     7    22     2    1
     8     2     1    2
     9    19     9    1
    10    26     6    1
    11     9     6    1
    12     9    28    1
    13     1     6    1
    14     1    21    1
    15     6    14    1
    16    31    14    1
    17    14     3    1
    18    36    20    1
    19    20    11    1
    20    24     3    1
    21     3    23    1
    22     3     5    1
    23    11    17    2
    24    11     8    1
    25    17    12    1
    26     5     8   ar
    27     5     4   ar
    28     8    10   ar
    29    30    13    1
    30    12    13    1
    31    12    16    1
    32     4    25    1
    33     4    15   ar
    34    10    16    1
    35    10    15   ar
    36    13    29    1
    37    16    33    1
    38    15    32    1
