@<TRIPOS>MOLECULE
WZZVUHWLNMNWLW-MEWKLCDLSA-N	6045451	-2306.410207686908
 84 86 0 0 0
SMALL
MULLIKEN NwChem

@<TRIPOS>ATOM
      1 C          -3.9789   -0.3177    2.5764 C.3     1  LIG1       -0.5300000000000002
      2 C           4.2146    1.0958   -1.8986 C.3     1  LIG1       -0.5700000000000003
      3 C           2.1343    3.5254    0.3639 C.3     1  LIG1       -0.5300000000000002
      4 C           2.1522   -2.2566    3.8466 C.3     1  LIG1       -0.08000000000000007
      5 C          -4.5223    0.1934   -3.9590 C.3     1  LIG1       -0.07000000000000028
      6 C          -0.5471   -2.8745   -1.9233 C.3     1  LIG1       -0.04999999999999982
      7 C          -3.2037    0.7450    1.8450 C.2     1  LIG1           0.5
      8 C           5.2130    0.8335   -0.7898 C.2     1  LIG1       0.5099999999999998
      9 C           1.0715    2.4703    0.4485 C.2     1  LIG1       0.4800000000000004
     10 C           3.3025   -2.0263    2.8605 C.3     1  LIG1       0.11000000000000032
     11 C          -3.4847    0.5480   -2.8745 C.3     1  LIG1       0.04999999999999982
     12 C           0.4481   -1.7001   -1.8217 C.3     1  LIG1       0.04999999999999982
     13 C          -4.5172    0.8749   -0.1171 C.3     1  LIG1       -0.04999999999999982
     14 C           3.6689    0.2034    0.9071 C.3     1  LIG1       -0.08000000000000007
     15 C          -0.2484    0.7054   -0.2595 C.3     1  LIG1       -0.03000000000000025
     16 C           4.1933   -0.7897    3.1519 C.3     1  LIG1       0.07000000000000028
     17 C           3.6785    0.4666    2.4373 C.3     1  LIG1       0.1200000000000001
     18 C          -4.3702   -0.5437   -0.7392 C.3     1  LIG1       0.09999999999999964
     19 C           0.3893   -0.4809    0.5019 C.3     1  LIG1       0.07000000000000028
     20 C          -3.2922   -0.5603   -1.8460 C.3     1  LIG1       0.13999999999999968
     21 C           1.0421   -1.5553   -0.4025 C.3     1  LIG1       0.13999999999999968
     22 C          -4.6816    1.9062   -1.2472 C.3     1  LIG1       0.3200000000000003
     23 C           3.2883   -1.2730    0.5419 C.3     1  LIG1       0.3899999999999997
     24 C          -0.9244    0.2652   -1.5469 C.3     1  LIG1       0.33000000000000007
     25 N          -3.3961    1.2854    0.7128 N.2     1  LIG1      -0.46999999999999975
     26 N           5.0142    0.4596    0.4092 N.2     1  LIG1         -0.5
     27 N           0.7507    1.7380   -0.5418 N.2     1  LIG1      -0.45999999999999996
     28 O           1.1052   -1.2926    3.6968 O.3     1  LIG1      -0.6799999999999997
     29 O          -4.0350   -0.8486   -4.7889 O.3     1  LIG1      -0.6600000000000001
     30 O          -1.3539   -3.1011   -0.7866 O.3     1  LIG1      -0.6999999999999993
     31 O          -2.0887    1.0744    2.5732 O.2     1  LIG1      -0.6400000000000006
     32 O           6.5164    1.0197   -1.1412 O.2     1  LIG1      -0.6099999999999994
     33 O           0.4820    2.3442    1.6937 O.2     1  LIG1      -0.6699999999999999
     34 O           5.5295   -1.0572    2.7506 O.3     1  LIG1      -0.7100000000000009
     35 O           2.4192    0.9143    2.9420 O.3     1  LIG1      -0.7200000000000006
     36 O          -5.6134   -1.0504   -1.1927 O.3     1  LIG1      -0.6899999999999995
     37 O          -0.5469   -1.1485    1.3688 O.3     1  LIG1      -0.6999999999999993
     38 O          -5.9937    1.6972   -1.7752 O.3     1  LIG1      -0.6600000000000001
     39 O          -3.7102    1.8307   -2.2645 O.3     1  LIG1      -0.5099999999999998
     40 O           2.6472   -1.9610    1.5905 O.3     1  LIG1      -0.5299999999999994
     41 O          -0.0913   -0.4843   -2.3827 O.3     1  LIG1      -0.5099999999999998
     42 O          -2.0629   -0.4629   -1.1071 O.3     1  LIG1      -0.5700000000000003
     43 O           2.4501   -1.3045   -0.5967 O.3     1  LIG1      -0.5600000000000005
     44 H          -4.9727   -0.4739    2.1540 H       1  LIG1       0.19999999999999996
     45 H          -4.0678   -0.0482    3.6317 H       1  LIG1       0.19999999999999996
     46 H          -3.4270   -1.2634    2.5201 H       1  LIG1       0.20999999999999996
     47 H           4.3639    2.1069   -2.2991 H       1  LIG1       0.19999999999999996
     48 H           4.3887    0.3813   -2.7095 H       1  LIG1       0.19999999999999996
     49 H           3.1764    0.9882   -1.5821 H       1  LIG1       0.19999999999999996
     50 H           1.7348    4.4964    0.6796 H       1  LIG1       0.18999999999999995
     51 H           2.9565    3.2767    1.0500 H       1  LIG1       0.18999999999999995
     52 H           2.5245    3.5968   -0.6533 H       1  LIG1       0.18999999999999995
     53 H           1.7469   -3.2644    3.7058 H       1  LIG1       0.17000000000000004
     54 H           2.5217   -2.1727    4.8735 H       1  LIG1       0.18000000000000005
     55 H          -5.4514   -0.1798   -3.5343 H       1  LIG1       0.16000000000000003
     56 H          -4.7382    1.1149   -4.5249 H       1  LIG1       0.15000000000000002
     57 H          -1.1432   -2.7084   -2.8374 H       1  LIG1          0.14
     58 H           0.0263   -3.7981   -2.0679 H       1  LIG1       0.16000000000000003
     59 H           3.9745   -2.8944    2.8880 H       1  LIG1       0.16000000000000003
     60 H          -2.5463    0.6818   -3.4220 H       1  LIG1       0.18000000000000005
     61 H           1.2871   -1.9244   -2.4883 H       1  LIG1       0.17000000000000004
     62 H          -5.4608    0.8810    0.4445 H       1  LIG1       0.18000000000000005
     63 H           2.9260    0.8581    0.4541 H       1  LIG1       0.17000000000000004
     64 H          -1.0524    1.1150    0.3441 H       1  LIG1       0.16000000000000003
     65 H           4.1926   -0.6127    4.2367 H       1  LIG1       0.16000000000000003
     66 H           4.3912    1.2758    2.6248 H       1  LIG1       0.17000000000000004
     67 H          -4.0222   -1.2341    0.0365 H       1  LIG1       0.17000000000000004
     68 H           1.1696   -0.0659    1.1281 H       1  LIG1       0.15000000000000002
     69 H          -3.3267   -1.5232   -2.3657 H       1  LIG1       0.16000000000000003
     70 H           0.9146   -2.5091    0.1145 H       1  LIG1       0.18000000000000005
     71 H          -4.5726    2.9206   -0.8491 H       1  LIG1       0.16000000000000003
     72 H           4.2113   -1.7986    0.2570 H       1  LIG1       0.15000000000000002
     73 H          -1.2059    1.1511   -2.1164 H       1  LIG1       0.17000000000000004
     74 H           1.8907    0.1438    3.2849 H       1  LIG1       0.45999999999999996
     75 H          -3.2423   -0.5250   -5.2438 H       1  LIG1       0.43000000000000005
     76 H          -1.7042   -2.2332   -0.5146 H       1  LIG1       0.44999999999999996
     77 H          -1.5676    1.7653    2.1132 H       1  LIG1       0.44999999999999996
     78 H           6.5590    1.2614   -2.0795 H       1  LIG1       0.45999999999999996
     79 H           1.1987    2.0619    2.3228 H       1  LIG1          0.47
     80 H           5.7198   -0.5613    1.9255 H       1  LIG1       0.42000000000000004
     81 H           0.6018   -1.5076    2.8769 H       1  LIG1       0.44999999999999996
     82 H          -6.1381   -0.3074   -1.5366 H       1  LIG1       0.43999999999999995
     83 H          -1.0023   -0.4527    1.8847 H       1  LIG1       0.44999999999999996
     84 H          -6.0826    2.2645   -2.5593 H       1  LIG1       0.43999999999999995
@<TRIPOS>BOND
     1    75    29    1
     2    29     5    1
     3    56     5    1
     4     5    55    1
     5     5    11    1
     6    60    11    1
     7    11    39    1
     8    11    20    1
     9    57     6    1
    10    48     2    1
    11    84    38    1
    12    61    12    1
    13    41    12    1
    14    41    24    1
    15    69    20    1
    16    47     2    1
    17    39    22    1
    18    73    24    1
    19    78    32    1
    20    58     6    1
    21     6    12    1
    22     6    30    1
    23     2    49    1
    24     2     8    1
    25    20    42    1
    26    20    18    1
    27    12    21    1
    28    38    22    1
    29    24    42    1
    30    24    15    1
    31    82    36    1
    32    22    71    1
    33    22    13    1
    34    36    18    1
    35    32     8    1
    36     8    26    2
    37    30    76    1
    38    18    13    1
    39    18    67    1
    40    52     3    1
    41    43    21    1
    42    43    23    1
    43    27    15    1
    44    27     9    2
    45    21    70    1
    46    21    19    1
    47    15    64    1
    48    15    19    1
    49    13    62    1
    50    13    25    1
    51    72    23    1
    52     3     9    1
    53     3    50    1
    54     3    51    1
    55    26    14    1
    56     9    33    1
    57    63    14    1
    58    19    68    1
    59    19    37    1
    60    23    14    1
    61    23    40    1
    62    25     7    2
    63    14    17    1
    64    37    83    1
    65    40    10    1
    66    33    79    1
    67     7    31    1
    68     7     1    1
    69    80    34    1
    70    77    31    1
    71    44     1    1
    72    17    66    1
    73    17    35    1
    74    17    16    1
    75    46     1    1
    76     1    45    1
    77    34    16    1
    78    10    59    1
    79    10    16    1
    80    10     4    1
    81    81    28    1
    82    35    74    1
    83    16    65    1
    84    28     4    1
    85    53     4    1
    86     4    54    1
