@<TRIPOS>MOLECULE
XBDQKXXYIPTUBI-UHFFFAOYSA-M	6045452	-267.8757171936138
 10 9 0 0 0
SMALL
MULLIKEN NwChem

@<TRIPOS>ATOM
      1 C           0.0593    1.2870   -1.3657 C.3     1  LIG1      -0.4400000000000004
      2 C          -0.5379   -0.0115   -0.8206 C.3     1  LIG1       -0.33999999999999986
      3 C           0.0521   -0.4440    0.5784 C.2     1  LIG1       0.5099999999999998
      4 O          -0.6906   -1.1996    1.2532 O.co2   1  LIG1      -0.6899999999999995
      5 O           1.2060   -0.0106    0.8368 O.co2   1  LIG1      -0.6799999999999997
      6 H          -0.2231    2.1412   -0.7351 H       1  LIG1          0.13
      7 H          -0.2588    1.5107   -2.3974 H       1  LIG1          0.13
      8 H           1.1506    1.2160   -1.3253 H       1  LIG1          0.14
      9 H          -1.6315    0.0515   -0.7355 H       1  LIG1          0.12
     10 H          -0.3356   -0.8327   -1.5287 H       1  LIG1           0.13
@<TRIPOS>BOND
     1     7     1    1
     2    10     2    1
     3     1     8    1
     4     1     2    1
     5     1     6    1
     6     2     9    1
     7     2     3    1
     8     3     5   ar
     9     3     4   ar
