@<TRIPOS>MOLECULE
XCADVMZZFPIERR-KQYNXXCUSA-M	11083928	-4157.368340703532
 40 40 0 0 0
SMALL
MULLIKEN NwChem

@<TRIPOS>ATOM
      1 C           1.1374    0.2907   -0.3075 C.3     1  LIG1       -0.08999999999999986
      2 C          -6.4054    0.9528    1.3756 C.ar    1  LIG1       0.16000000000000014
      3 C          -3.5562    0.0170   -1.7735 C.ar    1  LIG1       0.21999999999999975
      4 C          -0.0599   -0.2190    0.4856 C.3     1  LIG1       0.15000000000000036
      5 C          -5.4736    0.6202   -1.0947 C.ar    1  LIG1       0.17999999999999972
      6 C          -0.3118   -1.7483    0.4093 C.3     1  LIG1       0.040000000000000036
      7 C          -1.8561   -1.8584    0.2173 C.3     1  LIG1       0.11000000000000032
      8 C          -6.7944    1.0609   -0.8931 C.ar    1  LIG1       0.46999999999999975
      9 C          -4.7234    0.3753    0.0634 C.ar    1  LIG1       0.5300000000000002
     10 C          -2.3324   -0.3950    0.3976 C.3     1  LIG1       0.2599999999999998
     11 N          -7.6435    1.2959   -1.9388 N.pl3   1  LIG1       -0.7800000000000002
     12 N          -7.2464    1.2295    0.3612 N.ar    1  LIG1       -0.5499999999999998
     13 N          -5.1421    0.5243    1.3272 N.ar    1  LIG1         -0.54
     14 N          -4.7245    0.3965   -2.2379 N.ar    1  LIG1       -0.5700000000000003
     15 N          -3.4861   -0.0263   -0.3939 N.ar    1  LIG1       -0.5199999999999996
     16 O           0.0409   -2.4153    1.6014 O.3     1  LIG1       -0.7200000000000006
     17 O          -2.4556   -2.7477    1.1203 O.3     1  LIG1       -0.6899999999999995
     18 O           2.6651   -2.6658    0.9988 O.3     1  LIG1       -0.6500000000000004
     19 O           2.5253   -1.9936   -1.5546 O.2     1  LIG1       -0.6500000000000004
     20 O           4.5534    1.2564    0.7612 O.3     2  HOH2       -0.6400000000000006
     21 O           6.8278    0.1595   -0.2545 O.3     1  LIG1       -0.5099999999999998
     22 O           4.6553    0.6939   -1.9481 O.3     1  LIG1       -0.5199999999999996
     23 O           2.3413   -0.1936    0.3011 O.3     1  LIG1       -0.6500000000000004
     24 O          -1.2441    0.4115   -0.0252 O.3     1  LIG1       -0.5399999999999991
     25 O           4.5684   -1.3254    0.0039 O.3     1  LIG1       -0.5899999999999999
     26 P           2.9205   -1.7249   -0.1453 P.3     1  LIG1       1.2100000000000009
     27 SE          5.2418    0.2379   -0.5158 Se      1  LIG1       1.2899999999999991
     28 H           1.0887   -0.0307   -1.3519 H       1  LIG1       0.18999999999999995
     29 H           1.1742    1.3839   -0.2713 H       1  LIG1       0.18999999999999995
     30 H          -6.8166    1.1059    2.3717 H       1  LIG1       0.17000000000000004
     31 H          -2.6902   -0.2246   -2.3742 H       1  LIG1       0.21999999999999997
     32 H           0.0732    0.0332    1.5482 H       1  LIG1       0.16000000000000003
     33 H           0.2098   -2.1817   -0.4509 H       1  LIG1       0.18000000000000005
     34 H          -2.0862   -2.1709   -0.8107 H       1  LIG1       0.17000000000000004
     35 H          -2.5989   -0.2248    1.4489 H       1  LIG1       0.18000000000000005
     36 H          -8.4636    1.8483   -1.7313 H       1  LIG1          0.37
     37 H          -7.2221    1.4181   -2.8490 H       1  LIG1          0.38
     38 H           1.0057   -2.6478    1.5206 H       1  LIG1       0.45999999999999996
     39 H          -1.7166   -3.0240    1.7037 H       1  LIG1       0.43999999999999995
     40 H           3.6163    0.9252    0.8122 H       0  HOH0            0.5
@<TRIPOS>BOND
     1    37    11    1
     2    31     3    1
     3    14     3   ar
     4    14     5   ar
     5    22    27    1
     6    11    36    1
     7    11     8    1
     8     3    15   ar
     9    19    26    2
    10    28     1    1
    11     5     8   ar
    12     5     9   ar
    13     8    12   ar
    14    34     7    1
    15    27    21    1
    16    33     6    1
    17    15     9   ar
    18    15    10    1
    19     1    29    1
    20     1    23    1
    21     1     4    1
    22    26    25    1
    23    26    23    1
    24    26    18    1
    25    24    10    1
    26    24     4    1
    27     9    13   ar
    28     7    10    1
    29     7     6    1
    30     7    17    1
    31    12     2   ar
    32    10    35    1
    33     6     4    1
    34     6    16    1
    35     4    32    1
    36    20    40    1
    37    17    39    1
    38    13     2   ar
    39     2    30    1
    40    38    16    1
