@<TRIPOS>MOLECULE
XCCTYIAWTASOJW-XVFCMESISA-K	11083927	-2044.9129673792775
 36 37 0 0 0
SMALL
MULLIKEN NwChem

@<TRIPOS>ATOM
      1 C          -5.2129    1.2983   -0.3041 C.ar    1  LIG1       -0.29000000000000004
      2 C          -4.0168    0.7465   -0.0075 C.ar    1  LIG1       0.08000000000000007
      3 C           0.6303    0.9068    0.6787 C.3     1  LIG1       -0.040000000000000036
      4 C          -0.3773   -0.2046    0.9279 C.3     1  LIG1       0.1200000000000001
      5 C          -6.4021    0.9277    0.4880 C.ar    1  LIG1       0.5199999999999996
      6 C          -0.8110   -0.9099   -0.3624 C.3     1  LIG1       0.08999999999999986
      7 C          -2.0479   -1.6800    0.1310 C.3     1  LIG1       0.08000000000000007
      8 C          -2.6024   -0.7705    1.2743 C.3     1  LIG1          0.25
      9 C          -5.0452   -0.5010    1.8372 C.ar    1  LIG1       0.6600000000000001
     10 N          -6.2356    0.0493    1.5284 N.ar    1  LIG1      -0.6600000000000001
     11 N          -3.8847   -0.1573    1.0164 N.ar    1  LIG1      -0.4900000000000002
     12 O          -7.5162    1.4195    0.2003 O.2     1  LIG1      -0.6799999999999997
     13 O           0.1586   -1.7961   -0.8897 O.3     1  LIG1      -0.6999999999999993
     14 O          -1.6281   -2.9337    0.6602 O.3     1  LIG1      -0.6999999999999993
     15 O          -4.8515   -1.2973    2.7711 O.2     1  LIG1      -0.6400000000000006
     16 O           5.5352   -1.7645   -1.4932 O.3     1  LIG1      -0.6799999999999997
     17 O           5.5818   -0.0395    0.4058 O.3     1  LIG1      -0.7599999999999998
     18 O           6.1662    0.7361   -2.0088 O.2     1  LIG1      -0.6999999999999993
     19 O           3.6983    1.9083    0.4575 O.3     1  LIG1      -0.7200000000000006
     20 O           2.1533    2.1393   -1.6584 O.2     1  LIG1      -0.6799999999999997
     21 O           1.7326    0.2598    0.0604 O.3     1  LIG1      -0.6099999999999994
     22 O          -1.6065    0.2618    1.4830 O.3     1  LIG1      -0.5500000000000007
     23 O           3.7248    0.0741   -1.3715 O.3     1  LIG1      -0.6699999999999999
     24 P           5.4061   -0.2929   -1.2138 P.3     1  LIG1       1.0399999999999991
     25 P           2.9044    1.2845   -0.6784 P.3     1  LIG1       1.1199999999999992
     26 H          -5.3183    2.0201   -1.1082 H       1  LIG1          0.14
     27 H          -3.0963    0.9956   -0.5284 H       1  LIG1       0.18999999999999995
     28 H           0.9321    1.3944    1.6180 H       1  LIG1       0.16000000000000003
     29 H           0.1987    1.6695    0.0153 H       1  LIG1       0.15000000000000002
     30 H           0.0845   -0.9608    1.5843 H       1  LIG1       0.15000000000000002
     31 H          -1.0978   -0.1471   -1.1030 H       1  LIG1       0.16000000000000003
     32 H          -2.8103   -1.8321   -0.6462 H       1  LIG1       0.16000000000000003
     33 H          -2.7328   -1.3749    2.1733 H       1  LIG1       0.17000000000000004
     34 H           1.0127   -1.3100   -0.7962 H       1  LIG1       0.44999999999999996
     35 H          -0.7512   -3.0672    0.2452 H       1  LIG1       0.43000000000000005
     36 H           5.0340    0.7632    0.6189 H       1  LIG1       0.44999999999999996
@<TRIPOS>BOND
     1    18    24    2
     2    20    25    2
     3    16    24    1
     4    23    24    1
     5    23    25    1
     6    24    17    1
     7    26     1    1
     8    31     6    1
     9    13    34    1
    10    13     6    1
    11    25    21    1
    12    25    19    1
    13    32     7    1
    14    27     2    1
    15     6     7    1
    16     6     4    1
    17     1     2   ar
    18     1     5   ar
    19     2    11   ar
    20    29     3    1
    21    21     3    1
    22     7    14    1
    23     7     8    1
    24    12     5    2
    25    35    14    1
    26    17    36    1
    27     5    10   ar
    28     3     4    1
    29     3    28    1
    30     4    22    1
    31     4    30    1
    32    11     8    1
    33    11     9   ar
    34     8    22    1
    35     8    33    1
    36    10     9   ar
    37     9    15    2
