@<TRIPOS>MOLECULE
XFNJVJPLKCPIBV-UHFFFAOYSA-P	6045460	-230.63688965876983
 17 16 0 0 0
SMALL
MULLIKEN NwChem

@<TRIPOS>ATOM
      1 C           0.2608    0.2645    0.5648 C.3     1  LIG1      -0.2999999999999998
      2 C          -0.3453    1.4735   -0.1684 C.3     1  LIG1      -0.16999999999999993
      3 C          -0.3268   -1.0991    0.1627 C.3     1  LIG1      -0.16999999999999993
      4 N           0.2130    1.7089   -1.5733 N.4     1  LIG1         -0.71
      5 N           0.1332   -2.1911    1.1229 N.4     1  LIG1         -0.71
      6 H           0.0476    0.4483    1.6258 H       1  LIG1       0.20999999999999996
      7 H           1.3547    0.2649    0.4680 H       1  LIG1       0.19999999999999996
      8 H          -1.4303    1.3985   -0.2787 H       1  LIG1       0.22999999999999998
      9 H          -0.1207    2.3879    0.3850 H       1  LIG1          0.24
     10 H          -1.4194   -1.1011    0.2091 H       1  LIG1       0.22999999999999998
     11 H          -0.0169   -1.4320   -0.8319 H       1  LIG1          0.24
     12 H           0.0040    0.9488   -2.2339 H       1  LIG1      0.44999999999999996
     13 H          -0.1931    2.5666   -1.9787 H       1  LIG1      0.45999999999999996
     14 H           1.2344    1.8436   -1.5672 H       1  LIG1      0.44999999999999996
     15 H          -0.1728   -2.0105    2.0906 H       1  LIG1      0.44999999999999996
     16 H          -0.2545   -3.1089    0.8559 H       1  LIG1      0.45999999999999996
     17 H           1.1581   -2.2944    1.1430 H       1  LIG1      0.44999999999999996
@<TRIPOS>BOND
     1    12     4    1
     2    13     4    1
     3     4    14    1
     4     4     2    1
     5    11     3    1
     6     8     2    1
     7     2     9    1
     8     2     1    1
     9     3    10    1
    10     3     1    1
    11     3     5    1
    12     7     1    1
    13     1     6    1
    14    16     5    1
    15     5    17    1
    16     5    15    1
