@<TRIPOS>MOLECULE
XFVULMDJZXYMSG-ZIYNGMLESA-K	11083924	-1532.5154594688995
 33 34 0 0 0
SMALL
MULLIKEN NwChem

@<TRIPOS>ATOM
      1 C           2.3364   -0.2437   -1.5661 C.3     1  LIG1       -0.07000000000000028
      2 C          -2.7045   -0.6217   -1.1626 C.ar    1  LIG1       0.16000000000000014
      3 C           1.3520    0.3804   -0.5811 C.3     1  LIG1       0.1299999999999999
      4 CA         -4.4164    0.1832   -0.1082 C.ar    1  LIG1       0.08000000000000007
      5 C           1.3167   -0.2306    0.8462 C.3     1  LIG1       0.15000000000000036
      6 C          -0.2043    0.0152    1.2634 C.3     1  LIG1       0.08000000000000007
      7 C          -3.2898    0.8203    0.3996 C.ar    1  LIG1       0.41000000000000014
      8 C          -0.8184    0.6663    0.0005 C.3     1  LIG1       0.29000000000000004
      9 C          -5.8339    0.4194    0.3853 C.2     1  LIG1       0.4800000000000004
     10 N          -3.1758    1.8344    1.3555 N.pl3   1  LIG1      -0.8499999999999996
     11 N          -4.0144   -0.7154   -1.0987 N.ar    1  LIG1      -0.5899999999999999
     12 N          -2.2012    0.3165   -0.2821 N.ar    1  LIG1      -0.4800000000000004
     13 O           2.1464    0.3630    1.7478 O.3     1  LIG1      -0.7899999999999991
     14 O          -0.1922    0.8619    2.3859 O.3     1  LIG1      -0.7200000000000006
     15 OXT        -5.9242    1.2545    1.3548 O.co2   1  LIG1      -0.6999999999999993
     16 O          -6.7790   -0.1966   -0.1636 O.co2   1  LIG1      -0.6799999999999997
     17 O           6.0982    0.0494   -0.7446 O.3     1  LIG1      -0.7100000000000009
     18 O           4.7420   -2.1078   -1.3958 O.2     1  LIG1      -0.7300000000000004
     19 O           4.3194   -0.9682    0.8607 O.3     1  LIG1      -0.7799999999999994
     20 O           3.6392    0.2504   -1.3118 O.3     1  LIG1      -0.5999999999999996
     21 O          -0.0023    0.2764   -1.0925 O.3     1  LIG1      -0.5600000000000005
     22 P           4.8354   -0.7757   -0.6847 P.3     1  LIG1       1.0299999999999994
     23 H           2.0415    0.0453   -2.5905 H       1  LIG1          0.14
     24 H           2.3088   -1.3404   -1.5120 H       1  LIG1          0.14
     25 H          -2.0396   -1.1711   -1.8144 H       1  LIG1       0.17000000000000004
     26 H           1.6098    1.4464   -0.4655 H       1  LIG1       0.10999999999999999
     27 H           1.4742   -1.3266    0.7374 H       1  LIG1       0.07999999999999996
     28 H          -0.7419   -0.9218    1.4797 H       1  LIG1          0.12
     29 H          -0.7821    1.7599    0.1460 H       1  LIG1       0.15000000000000002
     30 H          -2.4433    1.6392    2.0385 H       1  LIG1          0.35
     31 H          -4.1194    1.8877    1.7660 H       1  LIG1          0.35
     32 H           3.6078   -0.3271    1.1717 H       1  LIG1       0.43000000000000005
     33 H           0.8332    0.9309    2.4816 H       1  LIG1           0.39
@<TRIPOS>BOND
     1    23     1    1
     2    25     2    1
     3     1    24    1
     4     1    20    1
     5     1     3    1
     6    18    22    2
     7    20    22    1
     8     2    11   ar
     9     2    12   ar
    10    11     4   ar
    11    21     3    1
    12    21     8    1
    13    17    22    1
    14    22    19    1
    15     3    26    1
    16     3     5    1
    17    12     8    1
    18    12     7   ar
    19    16     9   ar
    20     4     9    1
    21     4     7   ar
    22     8    29    1
    23     8     6    1
    24     9    15   ar
    25     7    10    1
    26    27     5    1
    27     5     6    1
    28     5    13    1
    29    19    32    1
    30     6    28    1
    31     6    14    1
    32    10    31    1
    33    10    30    1
    34    14    33    1
