@<TRIPOS>MOLECULE
XGYIMTFOTBMPFP-KQYNXXCUSA-N	6045462	-888.1422803623444
 31 33 0 0 0
SMALL
MULLIKEN NwChem

@<TRIPOS>ATOM
      1 C           1.8293    2.2367    2.2882 C.3     1  LIG1      -0.46999999999999975
      2 C          -1.9724   -0.8406    1.4483 C.ar    1  LIG1       0.16000000000000014
      3 C           1.0732   -1.7159   -1.5360 C.ar    1  LIG1       0.21999999999999975
      4 C           1.8010    2.2678    0.7725 C.3     1  LIG1       0.15000000000000036
      5 C          -0.5492   -2.2667   -0.2910 C.ar    1  LIG1       0.1900000000000004
      6 C           0.4400    2.6237    0.1648 C.3     1  LIG1       0.08000000000000007
      7 C           0.5043    1.9379   -1.2171 C.3     1  LIG1       0.08000000000000007
      8 C          -1.5903   -2.8771    0.4385 C.ar    1  LIG1       0.4900000000000002
      9 C          -0.3339   -0.9067   -0.0424 C.ar    1  LIG1          0.54
     10 C           1.4149    0.7192   -0.9501 C.3     1  LIG1          0.25
     11 N          -1.9237   -4.1804    0.2619 N.pl3   1  LIG1      -0.7800000000000002
     12 N          -2.2904   -2.1376    1.3185 N.ar    1  LIG1      -0.5499999999999998
     13 N          -1.0235   -0.1404    0.8167 N.ar    1  LIG1        -0.54
     14 N           0.3422   -2.7583   -1.2296 N.ar    1  LIG1      -0.5700000000000003
     15 N           0.7163   -0.5549   -0.8710 N.ar    1  LIG1         -0.5
     16 O           0.3302    4.0444    0.0528 O.3     1  LIG1      -0.6699999999999999
     17 O           1.1643    2.7812   -2.1431 O.3     1  LIG1      -0.6899999999999995
     18 O           2.0933    0.9529    0.2719 O.3     1  LIG1      -0.5299999999999994
     19 H           1.0899    1.5187    2.6581 H       1  LIG1       0.16000000000000003
     20 H           1.5939    3.2322    2.6804 H       1  LIG1       0.16000000000000003
     21 H           2.8181    1.9415    2.6525 H       1  LIG1       0.17000000000000004
     22 H          -2.5696   -0.2860    2.1693 H       1  LIG1       0.17000000000000004
     23 H           1.8938   -1.7132   -2.2425 H       1  LIG1       0.21999999999999997
     24 H           2.5435    2.9810    0.3831 H       1  LIG1       0.15000000000000002
     25 H          -0.3668    2.1904    0.7606 H       1  LIG1       0.18000000000000005
     26 H          -0.4805    1.6284   -1.5929 H       1  LIG1       0.16000000000000003
     27 H           2.1274    0.6280   -1.7776 H       1  LIG1       0.18999999999999995
     28 H          -1.2889   -4.7771   -0.2484 H       1  LIG1          0.38
     29 H          -2.5521   -4.6009    0.9308 H       1  LIG1          0.37
     30 H          -0.6116    4.2726    0.0399 H       1  LIG1       0.44999999999999996
     31 H           1.0309    3.6868   -1.8028 H       1  LIG1       0.43000000000000005
@<TRIPOS>BOND
     1    23     3    1
     2    17    31    1
     3    17     7    1
     4    27    10    1
     5    26     7    1
     6     3    14   ar
     7     3    15   ar
     8    14     5   ar
     9     7    10    1
    10     7     6    1
    11    10    15    1
    12    10    18    1
    13    15     9   ar
    14     5     9   ar
    15     5     8   ar
    16    28    11    1
    17     9    13   ar
    18    30    16    1
    19    16     6    1
    20     6    25    1
    21     6     4    1
    22    11     8    1
    23    11    29    1
    24    18     4    1
    25    24     4    1
    26     8    12   ar
    27     4     1    1
    28    13     2   ar
    29    12     2   ar
    30     2    22    1
    31     1    21    1
    32     1    19    1
    33     1    20    1
