@<TRIPOS>MOLECULE
XHMJOUIAFHJHBW-UKFBFLRUSA-M	6045465	-1234.4019939874604
 29 29 0 0 0
SMALL
MULLIKEN NwChem

@<TRIPOS>ATOM
      1 C          -0.3804    1.5287    1.0154 C.3     1  LIG1       -0.07000000000000028
      2 C          -0.6826    1.1617   -0.4499 C.3     1  LIG1       0.11000000000000032
      3 C           1.5672    0.0175   -1.9507 C.3     1  LIG1       -0.019999999999999574
      4 C          -0.6410   -0.3370   -0.7531 C.3     1  LIG1       0.07000000000000028
      5 C           0.8021   -0.8610   -0.9437 C.3     1  LIG1       0.11000000000000032
      6 C           1.5064    1.4812   -1.4660 C.3     1  LIG1       0.33000000000000007
      7 N           1.0762   -0.1731   -3.3221 N.3     1  LIG1        -0.79
      8 O          -1.4078   -0.5311   -1.9603 O.3     1  LIG1      -0.6799999999999997
      9 O           1.5551   -0.8562    0.2446 O.3     1  LIG1      -0.7300000000000004
     10 O           2.1191    2.3669   -2.3765 O.3     1  LIG1      -0.6600000000000001
     11 O          -1.5357    0.0776    4.2248 O.3     1  LIG1      -0.6500000000000004
     12 O          -2.5299   -1.1586    2.1554 O.3     1  LIG1      -0.7300000000000004
     13 O          -0.0070   -1.0214    2.3710 O.2     1  LIG1      -0.7400000000000002
     14 O          -1.4283    1.0949    1.8661 O.3     1  LIG1      -0.5899999999999999
     15 O           0.1567    1.9165   -1.3464 O.3     1  LIG1      -0.5399999999999991
     16 P          -1.2633   -0.2753    2.8031 P.3     1  LIG1       1.1300000000000008
     17 H          -0.3345    2.6238    1.0669 H       1  LIG1       0.16000000000000003
     18 H           0.5839    1.1243    1.3303 H       1  LIG1       0.16000000000000003
     19 H          -1.6982    1.5064   -0.6676 H       1  LIG1       0.16000000000000003
     20 H           2.6179   -0.2943   -1.9190 H       1  LIG1          0.14
     21 H          -1.1235   -0.8680    0.0723 H       1  LIG1       0.15000000000000002
     22 H           0.7294   -1.8836   -1.3689 H       1  LIG1          0.12
     23 H           2.0496    1.5838   -0.5205 H       1  LIG1       0.15000000000000002
     24 H           1.6445    0.3931   -3.9512 H       1  LIG1       0.31999999999999995
     25 H           0.1194    0.1776   -3.3646 H       1  LIG1       0.31999999999999995
     26 H          -1.2059   -1.4262   -2.2777 H       1  LIG1       0.43000000000000005
     27 H           0.9618   -1.0010    1.0381 H       1  LIG1       0.44999999999999996
     28 H           1.4739    2.4589   -3.0984 H       1  LIG1       0.42000000000000004
     29 H          -2.1419   -2.0308    1.9851 H       1  LIG1       0.44999999999999996
@<TRIPOS>BOND
     1    24     7    1
     2    25     7    1
     3     7     3    1
     4    28    10    1
     5    10     6    1
     6    26     8    1
     7     8     4    1
     8     3    20    1
     9     3     6    1
    10     3     5    1
    11     6    15    1
    12     6    23    1
    13    22     5    1
    14    15     2    1
    15     5     4    1
    16     5     9    1
    17     4     2    1
    18     4    21    1
    19    19     2    1
    20     2     1    1
    21     9    27    1
    22     1    17    1
    23     1    18    1
    24     1    14    1
    25    14    16    1
    26    29    12    1
    27    12    16    1
    28    13    16    2
    29    16    11    1
