@<TRIPOS>MOLECULE
XIZOTXGJXSTQDI-UHFFFAOYSA-N	6045466	-1410.525578192115
 32 32 0 0 0
SMALL
MULLIKEN NwChem

@<TRIPOS>ATOM
      1 C          -2.2908   -1.4426    1.5167 C.3     1  LIG1      -0.4800000000000004
      2 C           2.5225    0.3866    2.5517 C.3     1  LIG1      -0.46999999999999975
      3 C          -2.5861   -0.0958    2.1585 C.3     1  LIG1       -0.04999999999999982
      4 C           1.4038    1.1364    3.2562 C.3     1  LIG1       -0.05999999999999961
      5 C          -0.4619   -1.8418   -2.6390 C.ar    1  LIG1      -0.20000000000000018
      6 C          -1.3983    0.3432   -3.0362 C.ar    1  LIG1      -0.20999999999999996
      7 C          -0.0441   -1.4290   -1.3775 C.ar    1  LIG1      -0.1900000000000004
      8 C          -0.9772    0.7645   -1.7761 C.ar    1  LIG1      -0.1900000000000004
      9 C          -1.1495   -0.9614   -3.4913 C.ar    1  LIG1       0.2999999999999998
     10 C          -0.3030   -0.1296   -0.9456 C.ar    1  LIG1       0.33000000000000007
     11 N          -1.5191   -1.3566   -4.7842 N.pl3   1  LIG1      -0.8300000000000001
     12 O          -2.0192    1.0234    1.4195 O.3     1  LIG1      -0.5399999999999991
     13 O           0.1003    0.7699    2.7326 O.3     1  LIG1      -0.5399999999999991
     14 O           0.1645    0.1868    0.3341 O.3     1  LIG1      -0.6099999999999994
     15 P          -0.4490    1.3333    1.3264 P.3     1  LIG1          1.08
     16 S          -0.0362    3.1670    0.8679 S.3     1  LIG1       -0.46999999999999886
     17 H          -2.5824   -1.4403    0.4626 H       1  LIG1       0.17000000000000004
     18 H          -2.8559   -2.2242    2.0378 H       1  LIG1       0.17000000000000004
     19 H          -1.2266   -1.6851    1.5778 H       1  LIG1       0.18000000000000005
     20 H           2.5890    0.6764    1.4992 H       1  LIG1       0.17000000000000004
     21 H           3.4790    0.6146    3.0359 H       1  LIG1       0.17000000000000004
     22 H           2.3520   -0.6933    2.6017 H       1  LIG1       0.17000000000000004
     23 H          -3.6582    0.1148    2.1577 H       1  LIG1       0.18000000000000005
     24 H          -2.2205   -0.0515    3.1885 H       1  LIG1       0.18000000000000005
     25 H           1.5260    2.2211    3.1693 H       1  LIG1       0.18000000000000005
     26 H           1.3488    0.8734    4.3155 H       1  LIG1       0.18999999999999995
     27 H          -0.2509   -2.8563   -2.9693 H       1  LIG1       0.16000000000000003
     28 H          -1.9211    1.0458   -3.6810 H       1  LIG1       0.16000000000000003
     29 H           0.4828   -2.1090   -0.7156 H       1  LIG1       0.16000000000000003
     30 H          -1.1701    1.7807   -1.4526 H       1  LIG1       0.17000000000000004
     31 H          -2.2934   -0.8357   -5.1780 H       1  LIG1          0.36
     32 H          -1.6615   -2.3533   -4.8952 H       1  LIG1           0.35
@<TRIPOS>BOND
     1    31    11    1
     2    32    11    1
     3    11     9    1
     4    28     6    1
     5     9     6   ar
     6     9     5   ar
     7     6     8   ar
     8    27     5    1
     9     5     7   ar
    10     8    30    1
    11     8    10   ar
    12     7    10   ar
    13     7    29    1
    14    10    14    1
    15    14    15    1
    16    17     1    1
    17    16    15    1
    18    15    12    1
    19    15    13    1
    20    12     3    1
    21    20     2    1
    22     1    19    1
    23     1    18    1
    24     1     3    1
    25    23     3    1
    26     3    24    1
    27     2    22    1
    28     2    21    1
    29     2     4    1
    30    13     4    1
    31    25     4    1
    32     4    26    1
