@<TRIPOS>MOLECULE
XJQKWSUIZRECMR-ONEGZZNKSA-M	6045468	-1450.6001346835083
 13 13 0 0 0
SMALL
MULLIKEN NwChem

@<TRIPOS>ATOM
      1 C           1.2450   -0.2115   -0.2996 C.2     1  LIG1      -0.1299999999999999
      2 C           1.2214   -1.5677   -0.2823 C.3     1  LIG1       -0.16999999999999993
      3 C          -0.0908    0.2370   -0.0524 C.2     1  LIG1       0.41000000000000014
      4 C          -0.6277    1.4790    0.0412 C.3     1  LIG1         -0.25
      5 C          -2.1089    1.8460    0.3244 C.2     1  LIG1       0.5099999999999998
      6 C          -0.1480   -2.0287   -0.0175 C.2     1  LIG1       0.6200000000000001
      7 CL          2.5401   -2.6693   -0.5216 Cl      1  LIG1      0.019999999999999574
      8 CL          0.4729    2.8412   -0.1802 Cl      1  LIG1          0.0
      9 O          -2.3336    2.0776    1.5249 O.co2   1  LIG1      -0.6099999999999994
     10 O          -2.8109    1.8665   -0.7009 O.co2   1  LIG1      -0.5999999999999996
     11 O          -0.6088   -3.1438    0.0839 O.2     1  LIG1      -0.5199999999999996
     12 O          -0.9106   -0.8811    0.1134 O.3     1  LIG1      -0.5199999999999996
     13 H           2.0899    0.4412   -0.4654 H       1  LIG1       0.22999999999999998
@<TRIPOS>BOND
     1    10     5   ar
     2     7     2    1
     3    13     1    1
     4     1     2    1
     5     1     3    2
     6     2     6    1
     7     8     4    1
     8     3     4    1
     9     3    12    1
    10     6    11    2
    11     6    12    1
    12     4     5    1
    13     5     9   ar
