@<TRIPOS>MOLECULE
XJXFAXLUOKQPAQ-YPRLVJTJSA-K	11083922	-3705.4659181707866
 69 74 0 0 0
SMALL
MULLIKEN NwChem

@<TRIPOS>ATOM
      1 C          -2.1700    2.5078    0.8159 C.3     1  LIG1       -0.07000000000000028
      2 C           1.2281   -1.5894    0.6021 C.3     1  LIG1       -0.08000000000000007
      3 C          -8.4074   -0.2716   -2.2702 C.ar    1  LIG1       0.15000000000000036
      4 C          -4.4343   -0.3076   -0.4720 C.ar    1  LIG1       0.20000000000000018
      5 C          -3.6257    2.7185    1.2537 C.3     1  LIG1       0.1299999999999999
      6 C           1.7470   -2.1773   -0.7235 C.3     1  LIG1       0.08999999999999986
      7 C           3.8657   -1.5600   -2.6629 C.3     1  LIG1       -0.08000000000000007
      8 C          -5.9556   -1.1341   -1.7135 C.ar    1  LIG1       0.1900000000000004
      9 C           5.4958   -0.1138   -1.7104 C.2     1  LIG1       0.09999999999999964
     10 C          -4.1889    1.6564    2.2314 C.3     1  LIG1       0.03000000000000025
     11 C          -5.6707    1.6207    1.8423 C.3     1  LIG1       0.09999999999999964
     12 C           3.0897   -2.8850   -0.7148 C.2     1  LIG1       -0.13999999999999968
     13 C           4.0568   -2.6824   -1.6403 C.2     1  LIG1       -0.04999999999999982
     14 C          -6.7945   -1.8878   -2.5483 C.ar    1  LIG1       0.4500000000000002
     15 C           4.5222    0.5411   -0.9631 C.2     1  LIG1       0.6500000000000004
     16 C          -6.4866    0.0641   -1.2150 C.ar    1  LIG1          0.54
     17 C           6.7610   -0.2299   -1.1036 C.3     1  LIG1       0.46999999999999975
     18 C           2.7528   -0.5688   -2.2720 C.3     1  LIG1       0.28000000000000025
     19 C          -5.6060    1.8644    0.3299 C.3     1  LIG1       0.23000000000000043
     20 C           6.2707    1.3912    0.4752 C.cat   1  LIG1       0.5800000000000001
     21 N          -6.3619   -3.0566   -3.1252 N.pl3   1  LIG1      -0.7800000000000002
     22 N           6.5788    2.3048    1.3481 N.pl3   1  LIG1        -0.79
     23 N          -8.0388   -1.4481   -2.8150 N.ar    1  LIG1      -0.5499999999999998
     24 N          -7.7168    0.5447   -1.4728 N.ar    1  LIG1        -0.54
     25 N          -4.6798   -1.3516   -1.2389 N.ar    1  LIG1      -0.5700000000000003
     26 N           5.0729   -0.7619   -2.9175 N.pl3   1  LIG1      -0.6500000000000004
     27 N           3.2224    0.4635   -1.3511 N.pl3   1  LIG1      -0.7300000000000004
     28 N           4.9039    1.2534    0.1332 N.pl3   1  LIG1        -0.75
     29 N           7.1751    0.5192   -0.1008 N.2     1  LIG1      -0.6100000000000003
     30 N          -5.4972    0.5921   -0.4198 N.ar    1  LIG1      -0.5199999999999996
     31 O          -4.0599    2.0088    3.5874 O.3     1  LIG1      -0.7300000000000004
     32 O          -6.3554    2.6960    2.4722 O.3     1  LIG1      -0.6899999999999995
     33 O           7.6427   -1.1565   -1.5952 O.3     1  LIG1      -0.6899999999999995
     34 O          -1.7396   -0.2108    1.5195 O.2     1  LIG1      -0.6999999999999993
     35 O          -1.7439    0.7803    3.9404 O.3     1  LIG1      -0.7100000000000009
     36 O           0.9678    1.3920    0.1970 O.2     1  LIG1      -0.7200000000000006
     37 O           2.7791    1.6023    2.0836 O.3     1  LIG1      -0.6600000000000001
     38 O          -1.3667    2.3163    1.9614 O.3     1  LIG1      -0.5999999999999996
     39 O           2.1116   -0.6690    1.2302 O.3     1  LIG1      -0.5700000000000003
     40 O           1.6050   -1.2369   -1.7998 O.3     1  LIG1      -0.5299999999999994
     41 O          -4.4915    2.6792    0.0828 O.3     1  LIG1      -0.5299999999999994
     42 O           0.4488    0.6673    2.6589 O.3     1  LIG1      -0.6400000000000006
     43 P          -1.1655    0.7574    2.5314 P.3     1  LIG1       1.2300000000000004
     44 P           1.6120    0.8861    1.4671 P.3     1  LIG1       1.2100000000000009
     45 S           3.1927   -4.2234    0.4849 S.3     1  LIG1      -0.14999999999999858
     46 S           5.5211   -3.6754   -1.8655 S.3     1  LIG1      -0.6099999999999994
     47 H          -1.8014    3.3970    0.2913 H       1  LIG1       0.16000000000000003
     48 H          -2.0958    1.6589    0.1315 H       1  LIG1       0.16000000000000003
     49 H           0.2556   -1.1320    0.3949 H       1  LIG1       0.18000000000000005
     50 H           1.0659   -2.4238    1.2992 H       1  LIG1       0.16000000000000003
     51 H          -9.4189    0.0519   -2.5161 H       1  LIG1       0.16000000000000003
     52 H          -3.5086   -0.1610    0.0836 H       1  LIG1       0.22999999999999998
     53 H          -3.7417    3.6985    1.7346 H       1  LIG1       0.15000000000000002
     54 H           0.9910   -2.9464   -0.9647 H       1  LIG1       0.17000000000000004
     55 H           3.5677   -2.0152   -3.6180 H       1  LIG1       0.17000000000000004
     56 H          -3.7247    0.6859    2.0381 H       1  LIG1       0.18000000000000005
     57 H          -6.1565    0.6611    2.0724 H       1  LIG1       0.16000000000000003
     58 H           2.3913   -0.0729   -3.1817 H       1  LIG1       0.17000000000000004
     59 H          -6.5173    2.3403   -0.0429 H       1  LIG1       0.18999999999999995
     60 H          -5.5392   -3.4692   -2.7042 H       1  LIG1          0.37
     61 H          -7.0874   -3.6944   -3.4213 H       1  LIG1          0.37
     62 H           7.5848    2.1913    1.5081 H       1  LIG1          0.28
     63 H           5.8053   -1.3964   -3.2282 H       1  LIG1       0.31999999999999995
     64 H           2.4674    0.9310   -0.8281 H       1  LIG1          0.38
     65 H           4.2013    1.5520    0.8320 H       1  LIG1          0.39
     66 H          -3.1695    1.6116    3.8767 H       1  LIG1       0.44999999999999996
     67 H          -5.8112    2.8533    3.2709 H       1  LIG1       0.43000000000000005
     68 H           4.3979   -4.6220   -0.0323 H       1  LIG1          0.12
     69 H           7.1092   -1.9866   -1.7391 H       1  LIG1       0.43000000000000005
@<TRIPOS>BOND
     1    55     7    1
     2    61    21    1
     3    63    26    1
     4    58    18    1
     5    21    60    1
     6    21    14    1
     7    26     7    1
     8    26     9    1
     9    23    14   ar
    10    23     3   ar
    11     7    18    1
    12     7    13    1
    13    14     8   ar
    14    51     3    1
    15    18    40    1
    16    18    27    1
    17     3    24   ar
    18    46    13    1
    19    40     6    1
    20    69    33    1
    21     8    25   ar
    22     8    16   ar
    23     9    17    1
    24     9    15    2
    25    13    12    2
    26    33    17    1
    27    24    16   ar
    28    27    15    1
    29    27    64    1
    30    25     4   ar
    31    16    30   ar
    32    17    29    1
    33    54     6    1
    34    15    28    1
    35     6    12    1
    36     6     2    1
    37    12    45    1
    38     4    30   ar
    39     4    52    1
    40    30    19    1
    41    29    20    2
    42    59    19    1
    43    68    45    1
    44    41    19    1
    45    41     5    1
    46    48     1    1
    47    28    20    1
    48    28    65    1
    49    36    44    2
    50    47     1    1
    51    19    11    1
    52    49     2    1
    53    20    22    1
    54     2    39    1
    55     2    50    1
    56     1     5    1
    57     1    38    1
    58    39    44    1
    59     5    53    1
    60     5    10    1
    61    22    62    1
    62    44    37    1
    63    44    42    1
    64    34    43    2
    65    11    57    1
    66    11    10    1
    67    11    32    1
    68    38    43    1
    69    56    10    1
    70    10    31    1
    71    32    67    1
    72    43    42    1
    73    43    35    1
    74    31    66    1
