@<TRIPOS>MOLECULE
XKJVEVRQMLKSMO-SSDOTTSWSA-K	6045470	-797.8596248205682
 21 20 0 0 0
SMALL
MULLIKEN NwChem

@<TRIPOS>ATOM
      1 C           0.8279    1.3940   -1.5034 C.3     1  LIG1       -0.3600000000000003
      2 C           0.0039    0.8390   -0.3263 C.3     1  LIG1        -0.25
      3 C          -0.2881   -0.9958    1.4888 C.3     1  LIG1       -0.34999999999999964
      4 C           0.6833    2.9211   -1.8502 C.2     1  LIG1           0.5
      5 C          -1.8416   -1.2541    1.5358 C.2     1  LIG1           0.5
      6 C           0.5601   -1.6542   -0.8630 C.2     1  LIG1       0.5300000000000002
      7 C           0.5058   -0.5113    0.2338 C.3     1  LIG1       0.21999999999999975
      8 O           0.8530    3.2262   -3.0719 O.co2   1  LIG1      -0.6999999999999993
      9 O           0.4790    3.7251   -0.8958 O.co2   1  LIG1      -0.6799999999999997
     10 O          -2.1854   -2.3429    2.0917 O.co2   1  LIG1      -0.6999999999999993
     11 O          -2.6035   -0.3318    1.1392 O.co2   1  LIG1      -0.6699999999999999
     12 O           1.6885   -2.2676   -0.9165 O.co2   1  LIG1      -0.6899999999999995
     13 O          -0.4490   -1.8820   -1.5595 O.co2   1  LIG1      -0.6699999999999999
     14 O           1.8767   -0.3412    0.6928 O.3     1  LIG1        -0.75
     15 H           0.6318    0.8119   -2.4132 H       1  LIG1       0.10999999999999999
     16 H           1.8907    1.2315   -1.2601 H       1  LIG1          0.13
     17 H           0.0382    1.5797    0.4841 H       1  LIG1       0.09999999999999998
     18 H          -1.0500    0.7118   -0.5903 H       1  LIG1          0.12
     19 H           0.2143   -1.9096    1.8348 H       1  LIG1       0.09999999999999998
     20 H          -0.0915   -0.2263    2.2573 H       1  LIG1          0.12
     21 H           2.2755   -1.1066    0.1990 H       1  LIG1           0.39
@<TRIPOS>BOND
     1     8     4   ar
     2    15     1    1
     3     4     1    1
     4     4     9   ar
     5    13     6   ar
     6     1    16    1
     7     1     2    1
     8    12     6   ar
     9     6     7    1
    10    18     2    1
    11     2     7    1
    12     2    17    1
    13    21    14    1
    14     7    14    1
    15     7     3    1
    16    11     5   ar
    17     3     5    1
    18     3    19    1
    19     3    20    1
    20     5    10   ar
