@<TRIPOS>MOLECULE
XKMLYUALXHKNFT-UUOKFMHZSA-J	11083921	-2739.8680443875282
 44 46 0 0 0
SMALL
MULLIKEN NwChem

@<TRIPOS>ATOM
      1 C           0.1981    0.6221    1.0803 C.3     1  LIG1       -0.04999999999999982
      2 C          -4.7984    0.6440    1.4555 C.ar    1  LIG1       0.17999999999999972
      3 C          -0.8188   -0.3001    0.3958 C.3     1  LIG1       0.09999999999999964
      4 C          -6.6047    0.0630    0.4395 C.ar    1  LIG1       0.08999999999999986
      5 C          -0.9797   -0.0705   -1.1288 C.3     1  LIG1       0.09999999999999964
      6 C          -2.5284   -0.0497   -1.3351 C.3     1  LIG1       0.09999999999999964
      7 C          -5.5585   -0.4937   -0.2643 C.ar    1  LIG1       0.5700000000000003
      8 C          -7.9852   -0.1842   -0.0409 C.ar    1  LIG1       0.4800000000000004
      9 C          -3.0509   -0.5732    0.0209 C.3     1  LIG1       0.2999999999999998
     10 C          -7.0584   -1.4535   -1.8743 C.ar    1  LIG1       0.5800000000000001
     11 N          -7.2296   -2.1163   -2.9975 N.pl3   1  LIG1      -0.8200000000000003
     12 N          -6.1030    0.7813    1.5227 N.ar    1  LIG1      -0.5899999999999999
     13 N          -5.7114   -1.2947   -1.3624 N.ar    1  LIG1      -0.7599999999999998
     14 N          -8.1032   -0.9444   -1.1774 N.ar    1  LIG1      -0.6699999999999999
     15 N          -4.3941   -0.1359    0.3748 N.ar    1  LIG1        -0.54
     16 O          -0.4669   -1.1229   -1.9008 O.3     1  LIG1      -0.7599999999999998
     17 O          -2.9117   -0.8546   -2.4348 O.3     1  LIG1      -0.6899999999999995
     18 O          -8.9779    0.2756    0.5616 O.2     1  LIG1      -0.6799999999999997
     19 O           6.2847    2.7570    1.7904 O.3     1  LIG1      -0.7599999999999998
     20 O           7.4857    2.8900   -0.4809 O.2     1  LIG1      -0.6899999999999995
     21 O           8.3919    1.2859    1.3797 O.3     1  LIG1      -0.7100000000000009
     22 O           1.9756   -1.1346   -1.3023 O.2     1  LIG1      -0.7300000000000004
     23 O           2.0122   -1.5890    1.2749 O.3     1  LIG1      -0.6999999999999993
     24 O           4.8744    0.5395    2.3837 O.3     1  LIG1      -0.7100000000000009
     25 O           5.5989   -1.6071    1.0311 O.2     1  LIG1      -0.6600000000000001
     26 O           1.3899    0.7364    0.3378 O.3     1  LIG1      -0.5999999999999996
     27 O          -2.1400   -0.0934    0.9781 O.3     1  LIG1      -0.5600000000000005
     28 O           6.1327    0.7868    0.1567 O.3     1  LIG1      -0.6699999999999999
     29 O           3.7816   -0.0121    0.0688 O.3     1  LIG1      -0.6300000000000008
     30 P           7.2350    1.9736    0.6916 P.3     1  LIG1       1.0399999999999991
     31 P           2.3256   -0.6757    0.1251 P.3     1  LIG1       1.1600000000000001
     32 P           5.1687   -0.1728    1.0741 P.3     1  LIG1       1.1199999999999992
     33 H           0.3896    0.2554    2.0971 H       1  LIG1       0.16000000000000003
     34 H          -0.2447    1.6280    1.1413 H       1  LIG1       0.16000000000000003
     35 H          -4.0613    1.0608    2.1255 H       1  LIG1       0.18999999999999995
     36 H          -0.5206   -1.3441    0.5505 H       1  LIG1       0.16000000000000003
     37 H          -0.5272    0.8904   -1.4112 H       1  LIG1       0.15000000000000002
     38 H          -2.9073    0.9697   -1.4800 H       1  LIG1       0.17000000000000004
     39 H          -3.0498   -1.6779   -0.0242 H       1  LIG1       0.17000000000000004
     40 H          -6.3062   -2.4261   -3.3252 H       1  LIG1          0.27
     41 H          -4.9205   -1.3928   -1.9944 H       1  LIG1          0.37
     42 H           0.5736   -1.1803   -1.6881 H       1  LIG1          0.47
     43 H          -2.0725   -1.3494   -2.6139 H       1  LIG1       0.43999999999999995
     44 H           5.7005    2.0514    2.1905 H       1  LIG1       0.44999999999999996
@<TRIPOS>BOND
     1    40    11    1
     2    11    10    1
     3    43    17    1
     4    17     6    1
     5    41    13    1
     6    16    42    1
     7    16     5    1
     8    10    13   ar
     9    10    14   ar
    10    38     6    1
    11    37     5    1
    12    13     7   ar
    13     6     5    1
    14     6     9    1
    15    22    31    2
    16    14     8   ar
    17     5     3    1
    18    20    30    2
    19     7    15   ar
    20     7     4   ar
    21     8     4   ar
    22     8    18    2
    23    39     9    1
    24     9    15    1
    25     9    27    1
    26    29    31    1
    27    29    32    1
    28    31    26    1
    29    31    23    1
    30    28    30    1
    31    28    32    1
    32    26     1    1
    33    15     2   ar
    34     3    36    1
    35     3    27    1
    36     3     1    1
    37     4    12   ar
    38    30    21    1
    39    30    19    1
    40    25    32    2
    41    32    24    1
    42     1    34    1
    43     1    33    1
    44     2    12   ar
    45     2    35    1
    46    19    44    1
