@<TRIPOS>MOLECULE
XKQZIXVJVUPORE-RPDRRWSUSA-N	6045472	-1022.711363880549
 35 35 0 0 0
SMALL
MULLIKEN NwChem

@<TRIPOS>ATOM
      1 C           1.4810   -0.4879    0.1154 C.3     1  LIG1       -0.20000000000000018
      2 C          -0.6350    1.0026    3.1566 C.3     1  LIG1       -0.08000000000000007
      3 C           1.2319   -1.0490    1.5315 C.3     1  LIG1       0.11000000000000032
      4 C           0.8716    1.2128    2.8807 C.3     1  LIG1       0.08999999999999986
      5 C          -0.6978   -0.9724   -2.0945 C.ar    1  LIG1       0.16999999999999993
      6 C           1.6640   -0.1013    2.6700 C.3     1  LIG1       0.07000000000000028
      7 C          -0.1261    0.2157   -1.6366 C.ar    1  LIG1       0.46999999999999975
      8 C          -1.0681   -0.9760   -3.4615 C.ar    1  LIG1       0.5199999999999996
      9 C          -0.4690    1.1692   -3.6747 C.ar    1  LIG1       0.6500000000000004
     10 N          -1.0077   -2.1615   -1.3549 N.pl3   1  LIG1      -0.8700000000000001
     11 N           0.3465    0.3600   -0.3166 N.pl3   1  LIG1      -0.6900000000000004
     12 N          -0.0158    1.3007   -2.4215 N.ar    1  LIG1      -0.5899999999999999
     13 N          -0.9630    0.0809   -4.2593 N.ar    1  LIG1      -0.5700000000000003
     14 O          -0.9344   -0.1866    3.9000 O.3     1  LIG1      -0.6799999999999997
     15 O          -0.1404   -1.4697    1.5991 O.3     1  LIG1      -0.6799999999999997
     16 O           1.4972    1.9260    3.9386 O.3     1  LIG1      -0.6799999999999997
     17 O           1.7372   -0.7916    3.9176 O.3     1  LIG1      -0.6899999999999995
     18 O          -1.5754   -2.0950   -3.9863 O.3     1  LIG1      -0.6300000000000008
     19 O          -0.3999    2.2609   -4.4557 O.3     1  LIG1      -0.6199999999999992
     20 H           1.5772   -1.3167   -0.5907 H       1  LIG1       0.19999999999999996
     21 H           2.4237    0.0710    0.0750 H       1  LIG1       0.19999999999999996
     22 H          -0.9777    1.8506    3.7551 H       1  LIG1       0.16000000000000003
     23 H          -1.1937    1.0064    2.2092 H       1  LIG1       0.15000000000000002
     24 H           1.8356   -1.9522    1.6687 H       1  LIG1       0.17000000000000004
     25 H           0.9655    1.8546    1.9942 H       1  LIG1       0.16000000000000003
     26 H           2.6987    0.1887    2.4453 H       1  LIG1       0.16000000000000003
     27 H          -1.8938   -2.0710   -0.8585 H       1  LIG1          0.37
     28 H          -0.3134   -2.4234   -0.6622 H       1  LIG1          0.35
     29 H           0.5432    1.3451   -0.1638 H       1  LIG1          0.37
     30 H          -0.9227   -0.9077    3.2375 H       1  LIG1       0.43999999999999995
     31 H          -0.5991   -0.8223    1.0194 H       1  LIG1       0.43999999999999995
     32 H           1.7614    1.2475    4.5862 H       1  LIG1       0.41000000000000003
     33 H           0.8148   -0.8454    4.2446 H       1  LIG1       0.42000000000000004
     34 H          -1.5243   -2.7576   -3.2609 H       1  LIG1       0.44999999999999996
     35 H          -0.0131    2.9647   -3.9064 H       1  LIG1       0.44999999999999996
@<TRIPOS>BOND
     1    19    35    1
     2    19     9    1
     3    13     9   ar
     4    13     8   ar
     5    18     8    1
     6    18    34    1
     7     9    12   ar
     8     8     5   ar
     9    12     7   ar
    10     5     7   ar
    11     5    10    1
    12     7    11    1
    13    10    27    1
    14    10    28    1
    15    20     1    1
    16    11    29    1
    17    11     1    1
    18    21     1    1
    19     1     3    1
    20    31    15    1
    21     3    15    1
    22     3    24    1
    23     3     6    1
    24    25     4    1
    25    23     2    1
    26    26     6    1
    27     6     4    1
    28     6    17    1
    29     4     2    1
    30     4    16    1
    31     2    22    1
    32     2    14    1
    33    30    14    1
    34    17    33    1
    35    16    32    1
