@<TRIPOS>MOLECULE
XKZDNWMDLGQXML-UHFFFAOYSA-N	6045473	-591.5413392386714
 22 23 0 0 0
SMALL
MULLIKEN NwChem

@<TRIPOS>ATOM
      1 C           3.0478    0.1415    0.2123 C.ar    1  LIG1      -0.16999999999999993
      2 C           3.0995    1.5509    0.2044 C.ar    1  LIG1      -0.17999999999999972
      3 C           1.8451   -0.5331    0.0429 C.ar    1  LIG1      -0.2400000000000002
      4 C           1.9509    2.3138    0.0248 C.ar    1  LIG1      -0.1900000000000004
      5 C          -1.4105    1.0454   -0.4676 C.ar    1  LIG1           0.0
      6 C          -1.3986   -2.0291    1.0399 C.2     1  LIG1       0.2400000000000002
      7 C           0.6662    0.2104   -0.1410 C.ar    1  LIG1       0.07000000000000028
      8 C          -0.7167   -0.1319   -0.3518 C.ar    1  LIG1           0.0
      9 C           0.7429    1.6315   -0.1465 C.ar    1  LIG1       0.29000000000000004
     10 C          -1.3218   -1.5093   -0.3936 C.3     1  LIG1       0.009999999999999787
     11 N          -0.5381    2.1080   -0.3439 N.ar    1  LIG1      -0.6799999999999997
     12 O          -2.4498   -2.3861    1.5318 O.2     1  LIG1      -0.4499999999999993
     13 O          -2.6057   -1.5051   -0.9715 O.3     1  LIG1      -0.6799999999999997
     14 H           3.9652   -0.4228    0.3534 H       1  LIG1       0.15000000000000002
     15 H           4.0546    2.0502    0.3406 H       1  LIG1       0.15000000000000002
     16 H           1.8185   -1.6201    0.0488 H       1  LIG1       0.16000000000000003
     17 H           1.9910    3.3999    0.0175 H       1  LIG1       0.16000000000000003
     18 H          -2.4635    1.1941   -0.6533 H       1  LIG1       0.18999999999999995
     19 H          -0.4498   -2.0359    1.6109 H       1  LIG1       0.17000000000000004
     20 H          -0.6472   -2.1880   -0.9493 H       1  LIG1       0.18000000000000005
     21 H          -0.7895    3.0793   -0.4397 H       1  LIG1          0.38
     22 H          -3.1930   -1.8979   -0.2955 H       1  LIG1       0.42000000000000004
@<TRIPOS>BOND
     1    13    10    1
     2    13    22    1
     3    20    10    1
     4    18     5    1
     5     5     8   ar
     6     5    11   ar
     7    21    11    1
     8    10     8    1
     9    10     6    1
    10     8     7   ar
    11    11     9   ar
    12     9     7   ar
    13     9     4   ar
    14     7     3   ar
    15    17     4    1
    16     4     2   ar
    17     3    16    1
    18     3     1   ar
    19     2     1   ar
    20     2    15    1
    21     1    14    1
    22     6    12    2
    23     6    19    1
