@<TRIPOS>MOLECULE
XLJMAIOERFSOGZ-UHFFFAOYSA-M	6045474	-168.22240656192156
 3 2 0 0 0
SMALL
MULLIKEN NwChem

@<TRIPOS>ATOM
      1 C          -0.0685    0.0000   -0.0000 C.1     1  LIG1       0.3600000000000003
      2 N          -1.2649   -0.0000    0.0000 N.1     1  LIG1      -0.7199999999999998
      3 O           1.1668   -0.0000    0.0000 O.3     1  LIG1      -0.6400000000000006
@<TRIPOS>BOND
     1     1     2    3
     2     1     3    1
