@<TRIPOS>MOLECULE
XLYOFNOQVPJJNP-UHFFFAOYSA-N	6045477	-76.4153704304954
 3 2 0 0 0
SMALL
MULLIKEN NwChem

@<TRIPOS>ATOM
      1 O          -0.0525    0.0179    0.0719 O.3     1  HOH1      -0.8499999999999996
      2 H          -0.3289   -0.2066   -0.8290 H       0  HOH0       0.42000000000000004
      3 H           0.9152    0.0061    0.0245 H       0  HOH0       0.42000000000000004
@<TRIPOS>BOND
     1     2     1    1
     2     3     1    1
