@<TRIPOS>MOLECULE
XLYOFNOQVPJJNP-UHFFFAOYSA-M	6045476	-75.88072174219158
 2 1 0 0 0
SMALL
MULLIKEN NwChem

@<TRIPOS>ATOM
      1 O          -0.1122    0.0000   -0.0000 O.3     1  HOH1      -1.2300000000000004
      2 H           0.8752    0.0000   -0.0000 H       0  HOH0       0.22999999999999998
@<TRIPOS>BOND
     1     1     2    1
