@<TRIPOS>MOLECULE
XMLLJGHZPHTUKK-KJNRMUPVSA-N	6045478	-1870.0076261621912
 94 100 0 0 0
SMALL
MULLIKEN NwChem

@<TRIPOS>ATOM
      1 C          -3.8769    3.5094    3.3265 C.3     1  LIG1      -0.45999999999999996
      2 C          -4.0925   -1.2303    1.3754 C.3     1  LIG1      -0.4800000000000004
      3 C          -1.3562   -0.7444   -4.4650 C.3     1  LIG1      -0.4900000000000002
      4 C          -1.8895   -4.8526    0.7403 C.3     1  LIG1      -0.4900000000000002
      5 C           1.8331   -1.7652   -3.0875 C.2     1  LIG1      -0.23000000000000043
      6 C           1.4675   -2.7166   -1.9818 C.3     1  LIG1      -0.3200000000000003
      7 C          -3.1706    2.0480    1.3725 C.3     1  LIG1      -0.28000000000000025
      8 C           0.0745    1.8134   -3.0432 C.3     1  LIG1      -0.3099999999999996
      9 C          -2.2479   -1.8023   -1.6067 C.3     1  LIG1      -0.2999999999999998
     10 C          -0.6498    0.6031   -2.4266 C.3     1  LIG1      -0.3099999999999996
     11 C          -2.6086   -3.0640   -0.8232 C.3     1  LIG1      -0.28000000000000025
     12 C          -2.1423    1.0425    0.8290 C.3     1  LIG1      -0.33999999999999986
     13 C           1.5223    0.2890   -4.4368 C.3     1  LIG1      -0.3700000000000001
     14 C           0.5938   -2.8154    1.1865 C.3     1  LIG1      -0.3200000000000003
     15 C          -2.4656    1.4355    3.6768 C.3     1  LIG1       -0.13999999999999968
     16 C           1.0860    2.8110    1.4470 C.3     1  LIG1       -0.08000000000000007
     17 C          -2.7832    2.6100    2.7473 C.3     1  LIG1      -0.08000000000000007
     18 C          -2.6994   -1.2986    2.0090 C.3     1  LIG1       -0.1299999999999999
     19 C           0.9963   -0.8529   -3.5980 C.2     1  LIG1      0.17999999999999972
     20 C           1.4994    1.5541   -3.5532 C.3     1  LIG1       0.15000000000000036
     21 C           0.2066   -2.2376   -1.2466 C.3     1  LIG1      -0.11000000000000032
     22 C          -0.8854   -1.9576   -2.2936 C.3     1  LIG1      -0.09999999999999964
     23 C          -0.1497   -3.2275   -0.1016 C.3     1  LIG1      -0.11000000000000032
     24 C          -0.4034   -1.9565    1.9415 C.3     1  LIG1       0.09999999999999964
     25 C           1.7105    1.4938    0.9452 C.3     1  LIG1       0.04999999999999982
     26 C          -1.7970   -2.5451    1.7121 C.3     1  LIG1      -0.13999999999999968
     27 C           3.1141    1.1880    1.4838 C.3     1  LIG1       0.09999999999999964
     28 C           4.2267    1.8492    0.6412 C.3     1  LIG1       0.07000000000000028
     29 C           4.0261    1.5241   -0.8456 C.3     1  LIG1       0.08999999999999986
     30 C           2.6071    1.8987   -1.3223 C.3     1  LIG1       0.33999999999999986
     31 C          -0.4748   -0.7417   -3.1929 C.3     1  LIG1      0.04999999999999982
     32 C          -1.6567   -3.3738    0.3476 C.3     1  LIG1      0.11000000000000032
     33 C          -1.7296   -0.0565    1.8192 C.3     1  LIG1       0.4800000000000004
     34 N          -1.3844    0.6298    3.0893 N.3     1  LIG1      -0.6399999999999997
     35 O           0.6783    2.6861    2.7940 O.3     1  LIG1      -0.6999999999999993
     36 O           3.3350   -0.2197    1.5552 O.3     1  LIG1      -0.6999999999999993
     37 O           4.3421    3.2574    0.8367 O.3     1  LIG1      -0.6699999999999999
     38 O           4.2146    0.1185   -1.0251 O.3     1  LIG1      -0.6899999999999995
     39 O           2.5135    1.2828   -2.5691 O.3     1  LIG1      -0.5399999999999991
     40 O           1.6079    1.3490   -0.4894 O.3     1  LIG1      -0.5299999999999994
     41 O          -0.5207   -0.6510    1.3463 O.3     1  LIG1      -0.5399999999999991
     42 H          -4.8143    2.9541    3.4633 H       1  LIG1       0.15000000000000002
     43 H          -4.0849    4.3528    2.6578 H       1  LIG1       0.15000000000000002
     44 H          -3.5823    3.9178    4.3003 H       1  LIG1       0.15000000000000002
     45 H          -4.0758   -0.9842    0.3124 H       1  LIG1       0.17000000000000004
     46 H          -4.6022   -2.1934    1.4886 H       1  LIG1       0.16000000000000003
     47 H          -4.7063   -0.4781    1.8805 H       1  LIG1       0.16000000000000003
     48 H          -2.4187   -0.7493   -4.2009 H       1  LIG1       0.15000000000000002
     49 H          -1.1881    0.1399   -5.0874 H       1  LIG1       0.15000000000000002
     50 H          -1.1538   -1.6294   -5.0792 H       1  LIG1          0.14
     51 H          -2.9143   -5.0015    1.1040 H       1  LIG1          0.14
     52 H          -1.7372   -5.5174   -0.1177 H       1  LIG1          0.14
     53 H          -1.2038   -5.1723    1.5343 H       1  LIG1       0.15000000000000002
     54 H           2.8683   -1.7783   -3.4327 H       1  LIG1          0.13
     55 H           1.3099   -3.7371   -2.3689 H       1  LIG1          0.14
     56 H           2.3113   -2.7913   -1.2809 H       1  LIG1          0.14
     57 H          -4.1575    1.5734    1.4518 H       1  LIG1       0.15000000000000002
     58 H          -3.2830    2.8649    0.6481 H       1  LIG1          0.14
     59 H          -0.4802    2.1794   -3.9185 H       1  LIG1       0.15000000000000002
     60 H           0.0782    2.6357   -2.3180 H       1  LIG1       0.15000000000000002
     61 H          -3.0373   -1.5842   -2.3359 H       1  LIG1          0.13
     62 H          -2.2009   -0.9573   -0.9217 H       1  LIG1       0.15000000000000002
     63 H          -1.7177    0.8459   -2.3558 H       1  LIG1          0.14
     64 H          -0.2795    0.4779   -1.4107 H       1  LIG1       0.18000000000000005
     65 H          -2.5633   -3.9149   -1.5189 H       1  LIG1          0.13
     66 H          -3.6431   -3.0310   -0.4697 H       1  LIG1          0.14
     67 H          -2.5194    0.5955   -0.0894 H       1  LIG1       0.17000000000000004
     68 H          -1.2236    1.5684    0.5574 H       1  LIG1       0.17000000000000004
     69 H           2.5519    0.1010   -4.7590 H       1  LIG1       0.15000000000000002
     70 H           0.9228    0.4759   -5.3352 H       1  LIG1       0.16000000000000003
     71 H           0.8235   -3.6876    1.8110 H       1  LIG1       0.15000000000000002
     72 H           1.5318   -2.2777    1.0144 H       1  LIG1       0.15000000000000002
     73 H          -2.1180    1.8007    4.6495 H       1  LIG1       0.15000000000000002
     74 H          -3.3844    0.8461    3.8581 H       1  LIG1          0.14
     75 H           1.7854    3.6556    1.4246 H       1  LIG1          0.14
     76 H           0.2512    3.0668    0.7723 H       1  LIG1       0.15000000000000002
     77 H          -1.8559    3.1892    2.6447 H       1  LIG1          0.13
     78 H          -2.8817   -1.3595    3.0911 H       1  LIG1       0.15000000000000002
     79 H           1.8320    2.4307   -4.1289 H       1  LIG1          0.14
     80 H           0.4526   -1.2786   -0.7821 H       1  LIG1          0.14
     81 H          -0.9509   -2.8331   -2.9613 H       1  LIG1       0.10999999999999999
     82 H           0.1827   -4.2216   -0.4271 H       1  LIG1          0.12
     83 H          -0.1337   -1.8568    3.0043 H       1  LIG1          0.14
     84 H           1.0659    0.6960    1.3096 H       1  LIG1       0.18999999999999995
     85 H          -2.0315   -3.2812    2.4878 H       1  LIG1          0.14
     86 H           3.1650    1.5723    2.5075 H       1  LIG1       0.15000000000000002
     87 H           5.1838    1.4292    0.9618 H       1  LIG1       0.17000000000000004
     88 H           4.7507    2.0920   -1.4457 H       1  LIG1       0.15000000000000002
     89 H           2.4888    2.9953   -1.4044 H       1  LIG1       0.15000000000000002
     90 H          -1.0617   -0.0607    3.7645 H       1  LIG1       0.33999999999999997
     91 H           0.0487    1.9248    2.8558 H       1  LIG1       0.43999999999999995
     92 H           3.5483   -0.4958    0.6421 H       1  LIG1       0.43000000000000005
     93 H           3.5179    3.6819    0.5576 H       1  LIG1       0.43999999999999995
     94 H           3.6894   -0.1129   -1.8158 H       1  LIG1       0.44999999999999996
@<TRIPOS>BOND
     1    70    13    1
     2    49     3    1
     3    50     3    1
     4    69    13    1
     5     3    48    1
     6     3    31    1
     7    13    19    1
     8    13    20    1
     9    79    20    1
    10    59     8    1
    11    19    31    1
    12    19     5    2
    13    20     8    1
    14    20    39    1
    15    54     5    1
    16    31    10    1
    17    31    22    1
    18     5     6    1
    19     8    10    1
    20     8    60    1
    21    81    22    1
    22    39    30    1
    23    10    63    1
    24    10    64    1
    25    55     6    1
    26    61     9    1
    27    22     9    1
    28    22    21    1
    29     6    56    1
    30     6    21    1
    31    94    38    1
    32     9    62    1
    33     9    11    1
    34    65    11    1
    35    88    29    1
    36    89    30    1
    37    30    29    1
    38    30    40    1
    39    21    80    1
    40    21    23    1
    41    38    29    1
    42    29    28    1
    43    11    66    1
    44    11    32    1
    45    40    25    1
    46    82    23    1
    47    52     4    1
    48    23    32    1
    49    23    14    1
    50    67    12    1
    51    45     2    1
    52    32     4    1
    53    32    26    1
    54    68    12    1
    55    93    37    1
    56    28    37    1
    57    28    87    1
    58    28    27    1
    59    92    36    1
    60    58     7    1
    61     4    51    1
    62     4    53    1
    63    76    16    1
    64    12     7    1
    65    12    33    1
    66    25    84    1
    67    25    16    1
    68    25    27    1
    69    72    14    1
    70    14    71    1
    71    14    24    1
    72    41    33    1
    73    41    24    1
    74     7    57    1
    75     7    17    1
    76     2    46    1
    77     2    47    1
    78     2    18    1
    79    75    16    1
    80    16    35    1
    81    27    36    1
    82    27    86    1
    83    26    24    1
    84    26    18    1
    85    26    85    1
    86    33    18    1
    87    33    34    1
    88    24    83    1
    89    18    78    1
    90    77    17    1
    91    43     1    1
    92    17     1    1
    93    17    15    1
    94    35    91    1
    95    34    15    1
    96    34    90    1
    97     1    42    1
    98     1    44    1
    99    15    74    1
   100    15    73    1
