@<TRIPOS>MOLECULE
XMRPGKVKISIQBV-BJMCWZGWSA-N	6045479	-969.5546253572429
 55 58 0 0 0
SMALL
MULLIKEN NwChem

@<TRIPOS>ATOM
      1 C          -3.4759    0.5816   -2.7521 C.3     1  LIG1      -0.5599999999999996
      2 C           0.9061   -0.7369    3.0569 C.3     1  LIG1         -0.5
      3 C          -0.2242   -2.7729   -1.6058 C.3     1  LIG1      -0.4900000000000002
      4 C           2.9018   -0.1918    0.5324 C.3     1  LIG1      -0.29000000000000004
      5 C           2.1224   -0.2967   -0.8122 C.3     1  LIG1      -0.29000000000000004
      6 C          -0.9856   -0.9276   -4.0140 C.3     1  LIG1      -0.3099999999999996
      7 C           0.1629   -0.2254   -3.2327 C.3     1  LIG1      -0.29000000000000004
      8 C           0.8253    2.3030    3.5565 C.3     1  LIG1       -0.3700000000000001
      9 C          -1.4159   -0.4287    0.7250 C.3     1  LIG1      -0.29000000000000004
     10 C           0.0584    1.5624    2.4354 C.3     1  LIG1      -0.28000000000000025
     11 C          -1.9558   -1.4709   -0.2874 C.3     1  LIG1      -0.3200000000000003
     12 C           3.0577    1.3203    2.6476 C.3     1  LIG1       -0.3600000000000003
     13 C          -3.3290   -0.9288   -2.8897 C.2     1  LIG1       0.45999999999999996
     14 C           2.2180    0.8180    1.4632 C.3     1  LIG1      -0.11000000000000032
     15 C           2.3281    2.4763    3.3278 C.2     1  LIG1       0.46999999999999975
     16 C           0.6513    0.1445   -0.6407 C.3     1  LIG1      -0.08999999999999986
     17 C          -1.9438   -1.5733   -2.9568 C.3     1  LIG1       -0.17999999999999972
     18 C          -0.3322   -0.1992   -1.7811 C.3     1  LIG1      -0.1200000000000001
     19 C           0.1201   -0.3913    0.7120 C.3     1  LIG1      -0.1200000000000001
     20 C           0.8130    0.3140    1.9280 C.3     1  LIG1      0.11000000000000032
     21 C          -1.1292   -1.5187   -1.6102 C.3     1  LIG1      0.09999999999999964
     22 O          -4.3249   -1.6316   -2.9074 O.2     1  LIG1      -0.5199999999999996
     23 O           2.9073    3.4883    3.6740 O.2     1  LIG1      -0.5199999999999996
     24 H          -3.3096    0.8608   -1.7035 H       1  LIG1       0.20999999999999996
     25 H          -4.4959    0.8637   -3.0221 H       1  LIG1       0.17000000000000004
     26 H          -2.7578    1.1438   -3.3553 H       1  LIG1       0.18999999999999995
     27 H           1.2648   -0.3304    4.0061 H       1  LIG1       0.15000000000000002
     28 H          -0.0835   -1.1689    3.2457 H       1  LIG1       0.15000000000000002
     29 H           1.5754   -1.5591    2.7796 H       1  LIG1       0.15000000000000002
     30 H          -0.8466   -3.6742   -1.5624 H       1  LIG1       0.15000000000000002
     31 H           0.3934   -2.8434   -2.5073 H       1  LIG1       0.15000000000000002
     32 H           0.4444   -2.7949   -0.7417 H       1  LIG1       0.17000000000000004
     33 H           2.9528   -1.1715    1.0245 H       1  LIG1          0.14
     34 H           3.9398    0.1077    0.3461 H       1  LIG1          0.14
     35 H           2.1728   -1.3240   -1.1886 H       1  LIG1          0.14
     36 H           2.6008    0.3333   -1.5718 H       1  LIG1          0.13
     37 H          -0.5944   -1.7010   -4.6815 H       1  LIG1       0.16000000000000003
     38 H          -1.5226   -0.2211   -4.6551 H       1  LIG1       0.16000000000000003
     39 H           0.3748    0.7792   -3.6148 H       1  LIG1          0.14
     40 H           1.0932   -0.7961   -3.3200 H       1  LIG1       0.15000000000000002
     41 H           0.4027    3.2943    3.7451 H       1  LIG1       0.16000000000000003
     42 H           0.7248    1.7414    4.4966 H       1  LIG1       0.18999999999999995
     43 H          -1.8095    0.5706    0.4933 H       1  LIG1          0.14
     44 H          -1.7940   -0.6772    1.7237 H       1  LIG1          0.14
     45 H          -0.0998    2.2493    1.5931 H       1  LIG1       0.15000000000000002
     46 H          -0.9367    1.2936    2.8080 H       1  LIG1       0.15000000000000002
     47 H          -3.0149   -1.2717   -0.4815 H       1  LIG1          0.14
     48 H          -1.9285   -2.4609    0.1837 H       1  LIG1          0.14
     49 H           3.2362    0.5194    3.3779 H       1  LIG1       0.18000000000000005
     50 H           4.0367    1.6873    2.3227 H       1  LIG1       0.15000000000000002
     51 H           2.0388    1.7147    0.8514 H       1  LIG1          0.14
     52 H           0.6499    1.2416   -0.5838 H       1  LIG1          0.13
     53 H          -2.1575   -2.6154   -3.2097 H       1  LIG1          0.14
     54 H          -1.0903    0.5915   -1.7403 H       1  LIG1          0.14
     55 H           0.4434   -1.4391    0.7737 H       1  LIG1           0.13
@<TRIPOS>BOND
     1    37     6    1
     2    38     6    1
     3     6     7    1
     4     6    17    1
     5    39     7    1
     6    26     1    1
     7    40     7    1
     8     7    18    1
     9    53    17    1
    10    25     1    1
    11    17    13    1
    12    17    21    1
    13    22    13    2
    14    13     1    1
    15     1    24    1
    16    31     3    1
    17    18    54    1
    18    18    21    1
    19    18    16    1
    20    21     3    1
    21    21    11    1
    22     3    30    1
    23     3    32    1
    24    36     5    1
    25    35     5    1
    26     5    16    1
    27     5     4    1
    28    16    52    1
    29    16    19    1
    30    47    11    1
    31    11    48    1
    32    11     9    1
    33    34     4    1
    34    43     9    1
    35     4    33    1
    36     4    14    1
    37    19     9    1
    38    19    55    1
    39    19    20    1
    40     9    44    1
    41    51    14    1
    42    14    20    1
    43    14    12    1
    44    45    10    1
    45    20    10    1
    46    20     2    1
    47    50    12    1
    48    10    46    1
    49    10     8    1
    50    12    15    1
    51    12    49    1
    52    29     2    1
    53     2    28    1
    54     2    27    1
    55    15     8    1
    56    15    23    2
    57     8    41    1
    58     8    42    1
