@<TRIPOS>MOLECULE
XNJDZRGYWQBBMZ-UHFFFAOYSA-N	6045480	-592.7277330358165
 24 25 0 0 0
SMALL
MULLIKEN NwChem

@<TRIPOS>ATOM
      1 C           2.9938    0.0538    0.4266 C.ar    1  LIG1      -0.16999999999999993
      2 C           3.0992    1.4540    0.2963 C.ar    1  LIG1      -0.17999999999999972
      3 C           1.7901   -0.6001    0.1947 C.ar    1  LIG1      -0.2400000000000002
      4 C           2.0041    2.2275   -0.0724 C.ar    1  LIG1      -0.1900000000000004
      5 C          -1.3338    1.0115   -0.7949 C.ar    1  LIG1       -0.009999999999999787
      6 C          -1.4001   -2.0964    0.9574 C.3     1  LIG1       -0.08000000000000007
      7 C           0.6620    0.1536   -0.1757 C.ar    1  LIG1       0.07000000000000028
      8 C          -0.7080   -0.1723   -0.4945 C.ar    1  LIG1           0.0
      9 C           0.7952    1.5650   -0.3065 C.ar    1  LIG1       0.29000000000000004
     10 C          -1.3664   -1.5298   -0.4739 C.3     1  LIG1       0.04999999999999982
     11 N          -0.4384    2.0583   -0.6805 N.ar    1  LIG1      -0.6799999999999997
     12 O          -2.2622   -1.2958    1.7665 O.3     1  LIG1      -0.6600000000000001
     13 O          -2.7002   -1.4686   -0.9690 O.3     1  LIG1      -0.6699999999999999
     14 H           3.8708   -0.5208    0.7112 H       1  LIG1          0.14
     15 H           4.0538    1.9371    0.4851 H       1  LIG1       0.15000000000000002
     16 H           1.7254   -1.6805    0.2917 H       1  LIG1       0.16000000000000003
     17 H           2.0850    3.3062   -0.1777 H       1  LIG1       0.16000000000000003
     18 H          -2.3533    1.1737   -1.1117 H       1  LIG1       0.18000000000000005
     19 H          -1.8432   -3.0962    0.9460 H       1  LIG1       0.16000000000000003
     20 H          -0.3884   -2.1589    1.3823 H       1  LIG1       0.16000000000000003
     21 H          -0.8160   -2.2254   -1.1216 H       1  LIG1       0.16000000000000003
     22 H          -0.6434    3.0242   -0.8818 H       1  LIG1          0.37
     23 H          -1.8774   -0.4016    1.7721 H       1  LIG1       0.42000000000000004
     24 H          -3.2368   -1.2248   -0.1925 H       1  LIG1       0.42000000000000004
@<TRIPOS>BOND
     1    21    10    1
     2    18     5    1
     3    13    10    1
     4    13    24    1
     5    22    11    1
     6     5    11   ar
     7     5     8   ar
     8    11     9   ar
     9     8    10    1
    10     8     7   ar
    11    10     6    1
    12     9     7   ar
    13     9     4   ar
    14    17     4    1
    15     7     3   ar
    16     4     2   ar
    17     3    16    1
    18     3     1   ar
    19     2     1   ar
    20     2    15    1
    21     1    14    1
    22    19     6    1
    23     6    20    1
    24     6    12    1
    25    12    23    1
