@<TRIPOS>MOLECULE
XOHUEYCVLUUEJJ-UWTATZPHSA-I	11083920	-1551.8364613153944
 18 17 0 0 0
SMALL
MULLIKEN NwChem

@<TRIPOS>ATOM
      1 C           0.6234   -0.4781    0.3241 C.3     1  LIG1       -0.019999999999999574
      2 C          -0.5776    0.5375    0.1197 C.3     1  LIG1       0.08999999999999986
      3 C          -0.7752    1.4965    1.3760 C.2     1  LIG1       0.46999999999999975
      4 O          -0.6556    2.7501    1.1754 O.co2   1  LIG1      -0.6899999999999995
      5 O          -1.0358    0.9595    2.4967 O.co2   1  LIG1      -0.6899999999999995
      6 O           3.4311   -1.7494   -0.7701 O.2     1  LIG1      -0.8100000000000005
      7 O           3.3371   -1.6567    1.8231 O.3     1  LIG1      -0.8100000000000005
      8 O           4.4937    0.2553    0.4962 O.3     1  LIG1      -0.8100000000000005
      9 O          -3.3963   -1.5095   -1.6845 O.3     1  LIG1      -0.8100000000000005
     10 O          -4.1627    0.7438   -0.6835 O.3     1  LIG1      -0.8000000000000007
     11 O          -2.3486    0.7162   -2.5448 O.2     1  LIG1      -0.8100000000000005
     12 O           1.9302    0.1077    0.4019 O.3     1  LIG1      -0.6500000000000004
     13 O          -1.7535   -0.2653   -0.1337 O.3     1  LIG1      -0.6600000000000001
     14 P           3.4040   -0.8528    0.4964 P.3     1  LIG1       0.8800000000000008
     15 P          -3.0040   -0.0389   -1.3619 P.3     1  LIG1       0.8499999999999996
     16 H           0.3984   -1.0434    1.2454 H       1  LIG1       0.09999999999999998
     17 H           0.5759   -1.1871   -0.5203 H       1  LIG1       0.09999999999999998
     18 H          -0.3638    1.1689   -0.7536 H       1  LIG1       0.06999999999999995
@<TRIPOS>BOND
     1    11    15    2
     2     9    15    1
     3    15    10    1
     4    15    13    1
     5     6    14    2
     6    18     2    1
     7    17     1    1
     8    13     2    1
     9     2     1    1
    10     2     3    1
    11     1    12    1
    12     1    16    1
    13    12    14    1
    14     8    14    1
    15    14     7    1
    16     4     3   ar
    17     3     5   ar
