@<TRIPOS>MOLECULE
XPPKVPWEQAFLFU-UHFFFAOYSA-K	6045482	-1210.4700995454427
 10 9 0 0 0
SMALL
MULLIKEN NwChem

@<TRIPOS>ATOM
      1 O          -2.4036    1.0225    0.5999 O.3     1  LIG1      -0.7699999999999996
      2 O          -1.4036   -0.9365    1.9762 O.3     1  LIG1      -0.7599999999999998
      3 O          -1.5144   -1.0971   -0.6168 O.2     1  LIG1      -0.8000000000000007
      4 O           2.6190   -0.2434    0.1349 O.3     1  LIG1      -0.7400000000000002
      5 O           0.7992   -0.6405   -1.6742 O.3     1  LIG1      -0.8100000000000005
      6 O           1.6889    1.7553   -1.2288 O.2     1  LIG1      -0.7400000000000002
      7 O           0.1634    0.5502    0.4989 O.3     1  LIG1      -0.7200000000000006
      8 P          -1.4360   -0.1701    0.6453 P.3     1  LIG1       0.9399999999999995
      9 P           1.4179    0.4074   -0.5559 P.3     1  LIG1       0.9600000000000009
     10 H          -0.1419   -0.8848   -1.3275 H       1  LIG1       0.43999999999999995
@<TRIPOS>BOND
     1     5    10    1
     2     5     9    1
     3     6     9    2
     4     3     8    2
     5     9     4    1
     6     9     7    1
     7     7     8    1
     8     1     8    1
     9     8     2    1
