@<TRIPOS>MOLECULE
XPRWWANUPMYKMF-HVEGQNEHSA-N	6045483	-1207.3864829828756
 76 79 0 0 0
SMALL
MULLIKEN NwChem

@<TRIPOS>ATOM
      1 C           3.7840    5.5244   -2.5197 C.3     1  LIG1             -0.5
      2 C           3.6587    2.9439   -0.1775 C.3     1  LIG1      -0.45999999999999996
      3 C           1.8996    4.7545    0.2134 C.3     1  LIG1      -0.45999999999999996
      4 C           1.1359    0.0409   -4.8055 C.3     1  LIG1      -0.46999999999999975
      5 C          -2.0731    0.1103    3.5250 C.3     1  LIG1      -0.4900000000000002
      6 C          -1.2538   -2.5024   -1.4202 C.3     1  LIG1         -0.5
      7 C           2.7497    4.4912   -2.8716 C.2     1  LIG1      -0.20000000000000018
      8 C           1.5564    1.1728   -2.5734 C.3     1  LIG1      -0.28000000000000025
      9 C           1.1201    2.6466   -2.7055 C.3     1  LIG1      -0.3700000000000001
     10 C          -0.4661   -3.1459    2.9650 C.2     1  LIG1      -0.23000000000000043
     11 C           0.3250   -2.9261    1.7601 C.2     1  LIG1        -0.25
     12 C           1.8171   -1.9355   -2.4136 C.3     1  LIG1      -0.2999999999999998
     13 C           1.7353   -2.5052   -0.9762 C.3     1  LIG1      -0.29000000000000004
     14 C          -3.8548   -2.6441    2.2499 C.3     1  LIG1      -0.2999999999999998
     15 C          -0.9201    0.4421    0.5549 C.3     1  LIG1      -0.3200000000000003
     16 C          -3.1466   -1.3651    1.7656 C.3     1  LIG1      -0.29000000000000004
     17 C          -1.1960   -0.0485   -0.8916 C.3     1  LIG1      -0.3200000000000003
     18 C          -2.4762   -2.7354    4.3820 C.3     1  LIG1      -0.3600000000000003
     19 C           2.2685    3.4793   -0.5676 C.3     1  LIG1      -0.16000000000000014
     20 C           0.6454    0.1957   -3.3558 C.3     1  LIG1      -0.08000000000000007
     21 C           2.0999    3.6203   -2.0835 C.2     1  LIG1      0.1900000000000004
     22 C          -1.4668   -2.3236    3.3379 C.2     1  LIG1      0.15000000000000036
     23 C          -3.9111   -2.7516    3.7796 C.3     1  LIG1       0.15000000000000036
     24 C           0.2032   -1.7904    1.0548 C.2     1  LIG1      0.17999999999999972
     25 C           0.4661   -1.1935   -2.6987 C.3     1  LIG1      -0.09999999999999964
     26 C           0.8029   -1.5106   -0.2855 C.3     1  LIG1      -0.1900000000000004
     27 C          -0.6075   -0.6376    1.6338 C.3     1  LIG1      -0.16999999999999993
     28 C          -1.8118   -1.0629    2.5454 C.3     1  LIG1      0.05999999999999961
     29 C          -0.3279   -1.2638   -1.3351 C.3     1  LIG1      0.1200000000000001
     30 O          -4.6384   -1.6630    4.3635 O.3     1  LIG1      -0.6699999999999999
     31 H           4.0681    5.5203   -1.4667 H       1  LIG1       0.17000000000000004
     32 H           3.4271    6.5346   -2.7644 H       1  LIG1       0.16000000000000003
     33 H           4.6959    5.3671   -3.1111 H       1  LIG1       0.16000000000000003
     34 H           4.4524    3.6551   -0.4329 H       1  LIG1       0.15000000000000002
     35 H           3.7121    2.7503    0.9013 H       1  LIG1          0.14
     36 H           3.8771    2.0085   -0.7054 H       1  LIG1       0.15000000000000002
     37 H           0.9042    5.1134   -0.0687 H       1  LIG1       0.15000000000000002
     38 H           1.8903    4.5469    1.2904 H       1  LIG1          0.14
     39 H           2.6069    5.5705    0.0331 H       1  LIG1       0.15000000000000002
     40 H           2.0858   -0.5074   -4.8466 H       1  LIG1       0.15000000000000002
     41 H           0.4074   -0.5091   -5.4152 H       1  LIG1          0.14
     42 H           1.2962    1.0160   -5.2795 H       1  LIG1       0.15000000000000002
     43 H          -2.2360    1.0388    2.9662 H       1  LIG1       0.15000000000000002
     44 H          -2.9637   -0.0688    4.1290 H       1  LIG1       0.16000000000000003
     45 H          -1.2156    0.2643    4.1913 H       1  LIG1          0.14
     46 H          -2.0375   -2.3259   -2.1677 H       1  LIG1          0.14
     47 H          -0.7155   -3.4076   -1.7198 H       1  LIG1       0.15000000000000002
     48 H          -1.7371   -2.7164   -0.4624 H       1  LIG1       0.16000000000000003
     49 H           2.5108    4.4599   -3.9361 H       1  LIG1          0.12
     50 H           2.5915    1.0806   -2.9274 H       1  LIG1          0.14
     51 H           1.5785    0.9090   -1.5107 H       1  LIG1       0.16000000000000003
     52 H           0.1342    2.7553   -2.2233 H       1  LIG1       0.15000000000000002
     53 H           0.9741    2.8883   -3.7654 H       1  LIG1          0.14
     54 H          -0.2951   -4.0649    3.5260 H       1  LIG1          0.13
     55 H           0.9587   -3.7360    1.4064 H       1  LIG1          0.13
     56 H           2.0196   -2.7135   -3.1556 H       1  LIG1          0.14
     57 H           2.6517   -1.2269   -2.4711 H       1  LIG1       0.15000000000000002
     58 H           2.7159   -2.5758   -0.4905 H       1  LIG1          0.13
     59 H           1.3038   -3.5130   -0.9742 H       1  LIG1          0.14
     60 H          -3.3201   -3.5260    1.8747 H       1  LIG1          0.14
     61 H          -4.8694   -2.6940    1.8323 H       1  LIG1          0.14
     62 H          -0.0602    1.1212    0.5164 H       1  LIG1       0.16000000000000003
     63 H          -1.7628    1.0625    0.8775 H       1  LIG1          0.14
     64 H          -3.8251   -0.5106    1.8750 H       1  LIG1          0.14
     65 H          -2.9471   -1.4704    0.6980 H       1  LIG1       0.15000000000000002
     66 H          -1.0509    0.8108   -1.5517 H       1  LIG1       0.15000000000000002
     67 H          -2.2542   -0.3122   -0.9952 H       1  LIG1       0.15000000000000002
     68 H          -2.2259   -3.7300    4.7622 H       1  LIG1       0.15000000000000002
     69 H          -2.4902   -2.0589    5.2453 H       1  LIG1       0.15000000000000002
     70 H           1.5473    2.7169   -0.2432 H       1  LIG1       0.15000000000000002
     71 H          -0.3559    0.6482   -3.4113 H       1  LIG1          0.13
     72 H          -4.4051   -3.6972    4.0537 H       1  LIG1          0.13
     73 H          -0.1026   -1.7811   -3.4312 H       1  LIG1          0.12
     74 H           1.3641   -0.5648   -0.2076 H       1  LIG1          0.14
     75 H           0.0887   -0.1513    2.3391 H       1  LIG1          0.14
     76 H          -5.5145   -1.6409    3.9469 H       1  LIG1       0.42000000000000004
@<TRIPOS>BOND
     1    41     4    1
     2    42     4    1
     3    40     4    1
     4     4    20    1
     5    49     7    1
     6    53     9    1
     7    73    25    1
     8    71    20    1
     9    20    25    1
    10    20     8    1
    11    56    12    1
    12    33     1    1
    13    50     8    1
    14     7     1    1
    15     7    21    2
    16    32     1    1
    17     9     8    1
    18     9    52    1
    19     9    21    1
    20    25    12    1
    21    25    29    1
    22     8    51    1
    23     1    31    1
    24    57    12    1
    25    12    13    1
    26    46     6    1
    27    21    19    1
    28    47     6    1
    29    66    17    1
    30     6    29    1
    31     6    48    1
    32    29    17    1
    33    29    26    1
    34    67    17    1
    35    13    59    1
    36    13    58    1
    37    13    26    1
    38    17    15    1
    39    36     2    1
    40    19    70    1
    41    19     2    1
    42    19     3    1
    43    34     2    1
    44    26    74    1
    45    26    24    1
    46     2    35    1
    47    37     3    1
    48    39     3    1
    49     3    38    1
    50    62    15    1
    51    15    63    1
    52    15    27    1
    53    65    16    1
    54    24    27    1
    55    24    11    2
    56    55    11    1
    57    27    75    1
    58    27    28    1
    59    11    10    1
    60    16    64    1
    61    16    14    1
    62    16    28    1
    63    61    14    1
    64    60    14    1
    65    14    23    1
    66    28    22    1
    67    28     5    1
    68    10    22    2
    69    10    54    1
    70    43     5    1
    71    22    18    1
    72     5    44    1
    73     5    45    1
    74    23    72    1
    75    23    30    1
    76    23    18    1
    77    76    30    1
    78    18    68    1
    79    18    69    1
