@<TRIPOS>MOLECULE
XQHMUSRSLNRVGA-TURQNECASA-L	11083918	-1480.9305110504588
 37 38 0 0 0
SMALL
MULLIKEN NwChem

@<TRIPOS>ATOM
      1 C          -3.6172   -0.3262    3.0685 C.2     1  LIG1      -0.21999999999999975
      2 C          -4.6365    0.0394    2.0155 C.3     1  LIG1      -0.33999999999999986
      3 C          -2.3404   -0.6118    2.7671 C.2     1  LIG1      0.04999999999999982
      4 C          -2.6956   -0.0543    0.4617 C.2     1  LIG1       -0.03000000000000025
      5 C           1.9195    1.3602   -0.4102 C.3     1  LIG1       -0.04999999999999982
      6 C          -3.9957    0.2253    0.6517 C.2     1  LIG1           0.0
      7 C           1.3811    0.0414    0.1371 C.3     1  LIG1       0.08999999999999986
      8 C           0.7678   -0.9105   -0.9042 C.3     1  LIG1       0.11000000000000032
      9 C          -0.1832   -1.7701   -0.0295 C.3     1  LIG1       0.07000000000000028
     10 C          -4.8946    0.8638   -0.4309 C.2     1  LIG1       0.4299999999999997
     11 C          -0.4730   -0.8722    1.2083 C.3     1  LIG1          0.25
     12 N          -4.7270    0.5493   -1.7067 N.am    1  LIG1      -0.8399999999999999
     13 N          -1.8429   -0.5765    1.4688 N.pl3   1  LIG1      -0.45999999999999996
     14 O           1.6805   -1.7629   -1.5756 O.3     1  LIG1      -0.7300000000000004
     15 O           0.4949   -2.9479    0.3858 O.3     1  LIG1      -0.6999999999999993
     16 O          -5.7561    1.6681    0.0355 O.2     1  LIG1      -0.7200000000000006
     17 O           4.6674    0.9476    0.4028 O.3     1  LIG1      -0.6899999999999995
     18 O           4.2965   -0.9539   -1.3224 O.3     1  LIG1      -0.7599999999999998
     19 O           5.3273    1.2166   -2.1721 O.2     1  LIG1      -0.6799999999999997
     20 O           2.8753    1.1631   -1.4476 O.3     1  LIG1      -0.5899999999999999
     21 O           0.2901    0.3405    1.0067 O.3     1  LIG1      -0.5500000000000007
     22 P           4.4422    0.7339   -1.0618 P.3     1  LIG1       1.0999999999999996
     23 H          -3.9194   -0.3651    4.1145 H       1  LIG1          0.13
     24 H          -5.4342   -0.7269    1.9532 H       1  LIG1          0.14
     25 H          -5.1740    0.9702    2.2464 H       1  LIG1          0.13
     26 H          -1.6098   -0.8876    3.5240 H       1  LIG1       0.17000000000000004
     27 H          -2.2055    0.1444   -0.4858 H       1  LIG1       0.17000000000000004
     28 H           2.3483    1.9438    0.4110 H       1  LIG1       0.16000000000000003
     29 H           1.0823    1.9157   -0.8498 H       1  LIG1       0.16000000000000003
     30 H           2.1840   -0.4880    0.6757 H       1  LIG1       0.15000000000000002
     31 H           0.1858   -0.3218   -1.6276 H       1  LIG1       0.15000000000000002
     32 H          -1.1139   -2.0304   -0.5501 H       1  LIG1       0.15000000000000002
     33 H          -0.0754   -1.4054    2.0814 H       1  LIG1       0.16000000000000003
     34 H          -4.0030   -0.1767   -1.7583 H       1  LIG1          0.25
     35 H           2.5932   -1.3906   -1.5018 H       1  LIG1          0.47
     36 H           1.2178   -3.0177   -0.2751 H       1  LIG1       0.42000000000000004
     37 H           4.7071   -1.0804   -2.1925 H       1  LIG1       0.44999999999999996
@<TRIPOS>BOND
     1    37    18    1
     2    19    22    2
     3    34    12    1
     4    12    10   am
     5    31     8    1
     6    14    35    1
     7    14     8    1
     8    20    22    1
     9    20     5    1
    10    18    22    1
    11    22    17    1
    12     8     9    1
    13     8     7    1
    14    29     5    1
    15    32     9    1
    16    27     4    1
    17    10    16    2
    18    10     6    1
    19     5     7    1
    20     5    28    1
    21    36    15    1
    22     9    15    1
    23     9    11    1
    24     7    30    1
    25     7    21    1
    26     4     6    2
    27     4    13    1
    28     6     2    1
    29    21    11    1
    30    11    13    1
    31    11    33    1
    32    13     3    1
    33    24     2    1
    34     2    25    1
    35     2     1    1
    36     3     1    2
    37     3    26    1
    38     1    23    1
