@<TRIPOS>MOLECULE
XQYALQVLCNHCFT-CBAPKCEASA-K	11083917	-1995.59154026157
 45 44 0 0 0
SMALL
MULLIKEN NwChem

@<TRIPOS>ATOM
      1 C          -4.4867   -2.5009    0.2438 C.3     0  UNK0      -0.45999999999999996
      2 C          -4.3051   -0.6716    1.9085 C.3     0  UNK0      -0.46999999999999975
      3 C           2.1474    0.2187   -0.0575 C.3     0  UNK0       -0.3799999999999999
      4 C           0.7439    0.8183   -0.2104 C.3     0  UNK0       -0.13999999999999968
      5 CB          6.3307   -0.7380   -0.5823 C.3     1  CYS1       -0.3600000000000003
      6 C          -4.1532   -0.1623   -0.6161 C.3     0  UNK0       -0.07000000000000028
      7 CA          4.9738   -0.3649    0.1063 C.3     1  CYS1       -0.07000000000000028
      8 C           3.2663    1.2015   -0.5724 C.2     0  UNK0       0.4800000000000004
      9 C          -2.2594   -1.3659    0.5637 C.3     0  UNK0       0.09999999999999964
     10 C          -1.3613   -0.0962    0.5563 C.2     0  UNK0       0.4800000000000004
     11 C           5.0859   -0.3515    1.6585 C.2     1  CYS1       0.5800000000000001
     12 C          -3.7986   -1.1496    0.5322 C.3     0  UNK0       0.07000000000000028
     13 N          -0.2980   -0.2082   -0.1301 N.2     0  UNK0      -0.5099999999999998
     14 N           4.5463    0.8951   -0.4483 N.am    1  CYS1      -0.6200000000000001
     15 O           2.8394    2.2654   -1.1140 O.2     0  UNK0      -0.7100000000000009
     16 O          -1.8624   -2.1787   -0.5282 O.3     0  UNK0      -0.6999999999999993
     17 O          -1.6651    0.9440    1.3768 O.2     0  UNK0      -0.6899999999999995
     18 O           5.7969   -1.3531    2.2212 O.3     1  CYS1      -0.6300000000000008
     19 OXT         4.5375    0.4654    2.3802 O.2     1  CYS1      -0.5500000000000007
     20 O          -3.9951    2.2812    0.9480 O.3     0  UNK0      -0.7400000000000002
     21 O          -4.7942    2.8406   -1.3860 O.3     0  UNK0      -0.7300000000000004
     22 O          -6.5903    2.5974    0.4759 O.2     0  UNK0      -0.6600000000000001
     23 O          -5.3736    0.5450   -0.3898 O.3     0  UNK0      -0.5800000000000001
     24 P          -5.2295    2.1363    0.0678 P.3     0  UNK0       1.1199999999999992
     25 SG          7.0495   -2.4380   -0.2767 S.3     1  CYS1      -0.7600000000000016
     26 H          -4.1226   -2.9326   -0.6921 H       0  UNK0       0.15000000000000002
     27 H          -5.5724   -2.3511    0.1739 H       0  UNK0       0.15000000000000002
     28 H          -4.2903   -3.2239    1.0477 H       0  UNK0          0.14
     29 H          -3.8964    0.2906    2.2048 H       0  UNK0       0.15000000000000002
     30 H          -4.0369   -1.4168    2.6701 H       0  UNK0          0.14
     31 H          -5.3944   -0.5717    1.8875 H       0  UNK0       0.15000000000000002
     32 H           2.1881   -0.7235   -0.6261 H       0  UNK0          0.14
     33 H           2.3406   -0.0454    0.9889 H       0  UNK0          0.14
     34 H           0.5787    1.6206    0.5169 H       0  UNK0          0.13
     35 H           0.6962    1.2816   -1.2030 H       0  UNK0       0.15000000000000002
     36 HB1         7.0612    0.0356   -0.3044 H       1  CYS1          0.14
     37 HB2         6.1434   -0.6102   -1.6536 H       1  CYS1          0.14
     38 H          -4.2680   -0.7237   -1.5509 H       0  UNK0       0.16000000000000003
     39 H          -3.3311    0.5414   -0.7783 H       0  UNK0          0.14
     40 HA          4.2981   -1.2241   -0.0933 H       1  CYS1          0.14
     41 H          -2.0326   -1.8837    1.5177 H       0  UNK0       0.15000000000000002
     42 H          -0.9910   -1.7660   -0.7678 H       0  UNK0       0.41000000000000003
     43 H          -2.5521    1.3623    1.1795 H       0  UNK0          0.48
     44 H          -3.8663    3.0949   -1.2607 H       0  UNK0       0.43999999999999995
     45 H           6.2498   -1.9017    1.4862 H       1  CYS1           0.39
@<TRIPOS>BOND
     1    37     5    1
     2    38     6    1
     3    21    44    1
     4    21    24    1
     5    35     4    1
     6    15     8    2
     7    39     6    1
     8    42    16    1
     9    26     1    1
    10    32     3    1
    11     6    23    1
    12     6    12    1
    13     5    36    1
    14     5    25    1
    15     5     7    1
    16     8    14   am
    17     8     3    1
    18    16     9    1
    19    14     7    1
    20    23    24    1
    21     4    13    1
    22     4     3    1
    23     4    34    1
    24    13    10    2
    25    40     7    1
    26     3    33    1
    27    24    22    2
    28    24    20    1
    29     7    11    1
    30    27     1    1
    31     1    12    1
    32     1    28    1
    33    12     9    1
    34    12     2    1
    35    10     9    1
    36    10    17    1
    37     9    41    1
    38    43    17    1
    39    45    18    1
    40    11    18    1
    41    11    19    2
    42    31     2    1
    43     2    29    1
    44     2    30    1
