@<TRIPOS>MOLECULE
XRECTZIEBJDKEO-UHFFFAOYSA-N	6045487	-494.0773674262982
 13 13 0 0 0
SMALL
MULLIKEN NwChem

@<TRIPOS>ATOM
      1 C          -0.6069    1.4483    0.1021 C.3     1  LIG1       -0.04999999999999982
      2 C          -1.2660    0.2687    0.0362 C.2     1  LIG1       0.3200000000000003
      3 C          -0.5670   -1.0008   -0.0285 C.2     1  LIG1       0.45999999999999996
      4 C           1.4193    0.4335    0.0550 C.2     1  LIG1          0.75
      5 F          -2.6134    0.1963    0.0262 F       1  LIG1      -0.3000000000000007
      6 N          -1.0133   -2.1994   -0.0943 N.pl3   1  LIG1      -0.7300000000000004
      7 N           0.7682    1.5493    0.1125 N.2     1  LIG1      -0.5300000000000002
      8 N           0.8309   -0.8013   -0.0123 N.pl3   1  LIG1      -0.6799999999999997
      9 O           2.7667    0.4898    0.0616 O.2     1  LIG1      -0.6099999999999994
     10 H          -1.1609    2.3813    0.1499 H       1  LIG1       0.18999999999999995
     11 H          -2.0339   -2.1829   -0.0983 H       1  LIG1       0.31999999999999995
     12 H           1.3689   -1.6606   -0.0572 H       1  LIG1          0.39
     13 H           3.1594   -0.3953    0.0139 H       1  LIG1           0.47
@<TRIPOS>BOND
     1    11     6    1
     2     6     3    1
     3    12     8    1
     4     3     8    1
     5     3     2    2
     6     8     4    1
     7    13     9    1
     8     5     2    1
     9     2     1    1
    10     4     9    1
    11     4     7    2
    12     1     7    1
    13     1    10    1
