@<TRIPOS>MOLECULE
XSQUKJJJFZCRTK-UHFFFAOYSA-N	6045490	-225.20647534660662
 8 7 0 0 0
SMALL
MULLIKEN NwChem

@<TRIPOS>ATOM
      1 C          -0.0509    0.0846   -0.0112 C.2     1  LIG1       0.5899999999999999
      2 N          -0.7212    0.7809   -0.8457 N.2     1  LIG1      -0.7199999999999998
      3 N          -0.6591   -0.6751    0.9638 N.pl3   1  LIG1        -0.75
      4 O           1.3121   -0.0193    0.1194 O.2     1  LIG1      -0.6199999999999992
      5 H          -0.1228    1.3566   -1.4383 H       1  LIG1       0.31000000000000005
      6 H          -0.1422   -1.4858    1.2765 H       1  LIG1          0.37
      7 H          -1.6428   -0.8337    0.7956 H       1  LIG1          0.36
      8 H           1.7268    0.5127   -0.5763 H       1  LIG1       0.44999999999999996
@<TRIPOS>BOND
     1     5     2    1
     2     2     1    2
     3     8     4    1
     4     1     4    1
     5     1     3    1
     6     7     3    1
     7     3     6    1
