@<TRIPOS>MOLECULE
XTWYTFMLZFPYCI-KQYNXXCUSA-K	11083914	-2097.3925740000336
 39 41 0 0 0
SMALL
MULLIKEN NwChem

@<TRIPOS>ATOM
      1 C           0.9983    1.0166    1.5801 C.3     1  LIG1       -0.11000000000000032
      2 C          -3.2882    1.5409   -3.3697 C.ar    1  LIG1       0.15000000000000036
      3 C          -4.2767   -0.8108    0.1557 C.ar    1  LIG1       0.21999999999999975
      4 C           0.0991   -0.1835    1.2412 C.3     1  LIG1       0.13999999999999968
      5 C          -4.8062    0.3281   -1.5485 C.ar    1  LIG1       0.20000000000000018
      6 C           0.5821   -1.1401    0.1138 C.3     1  LIG1       0.019999999999999574
      7 C          -0.6694   -1.3233   -0.7955 C.3     1  LIG1       0.09999999999999964
      8 C          -5.3973    1.0721   -2.5873 C.ar    1  LIG1       0.4299999999999997
      9 C          -3.3959    0.2812   -1.5373 C.ar    1  LIG1          0.54
     10 C          -1.7749   -0.8277    0.1539 C.3     1  LIG1       0.2599999999999998
     11 N          -6.7927    1.1778   -2.7083 N.pl3   1  LIG1      -0.7699999999999996
     12 N          -4.6223    1.6863   -3.4955 N.ar    1  LIG1      -0.5300000000000002
     13 N          -2.5934    0.8691   -2.4400 N.ar    1  LIG1      -0.5300000000000002
     14 N          -5.3469   -0.3599   -0.4810 N.ar    1  LIG1      -0.5800000000000001
     15 N          -3.0733   -0.4734   -0.4283 N.ar    1  LIG1      -0.5199999999999996
     16 O           0.8900   -2.4248    0.6337 O.3     1  LIG1        -0.75
     17 O          -0.8491   -2.6729   -1.1870 O.3     1  LIG1      -0.6999999999999993
     18 O           5.2216   -0.8195   -0.2400 O.3     1  LIG1      -0.7799999999999994
     19 O           3.0484    0.5036   -0.7526 O.2     1  LIG1        -0.75
     20 O           5.2393    1.7686   -0.2453 O.3     1  LIG1      -0.7699999999999996
     21 O           3.6757   -0.1097    4.1145 O.3     1  LIG1      -0.6999999999999993
     22 O           2.6527   -1.5836    2.2378 O.2     1  LIG1        -0.75
     23 O           1.7343    0.7837    2.7692 O.3     1  LIG1      -0.5999999999999996
     24 O          -1.2393    0.2770    0.8248 O.3     1  LIG1      -0.5399999999999991
     25 O           4.0412    0.5645    1.6645 O.3     1  LIG1      -0.6799999999999997
     26 P           4.4345    0.4778   -0.0719 P.3     1  LIG1       0.9399999999999995
     27 P           3.1244   -0.2032    2.7147 P.3     1  LIG1       1.0999999999999996
     28 H           0.3384    1.8791    1.7711 H       1  LIG1          0.14
     29 H           1.6616    1.2394    0.7329 H       1  LIG1       0.18999999999999995
     30 H          -2.6909    2.0482   -4.1263 H       1  LIG1       0.17000000000000004
     31 H          -4.2905   -1.4016    1.0619 H       1  LIG1       0.21999999999999997
     32 H          -0.0286   -0.7813    2.1541 H       1  LIG1          0.14
     33 H           1.4453   -0.7052   -0.4125 H       1  LIG1       0.18999999999999995
     34 H          -0.6271   -0.6735   -1.6746 H       1  LIG1       0.16000000000000003
     35 H          -1.9946   -1.6606    0.8479 H       1  LIG1       0.16000000000000003
     36 H          -7.0501    2.0475   -3.1663 H       1  LIG1          0.36
     37 H          -7.2472    1.0772   -1.8047 H       1  LIG1          0.37
     38 H           1.6982   -2.2168    1.2426 H       1  LIG1       0.44999999999999996
     39 H          -0.1791   -3.1169   -0.6116 H       1  LIG1       0.43000000000000005
@<TRIPOS>BOND
     1    30     2    1
     2    12     2   ar
     3    12     8   ar
     4     2    13   ar
     5    36    11    1
     6    11     8    1
     7    11    37    1
     8     8     5   ar
     9    13     9   ar
    10    34     7    1
    11     5     9   ar
    12     5    14   ar
    13     9    15   ar
    14    17     7    1
    15    17    39    1
    16     7     6    1
    17     7    10    1
    18    19    26    2
    19    14     3   ar
    20    15    10    1
    21    15     3   ar
    22    33     6    1
    23    20    26    1
    24    18    26    1
    25    26    25    1
    26     6    16    1
    27     6     4    1
    28    10    24    1
    29    10    35    1
    30     3    31    1
    31    16    38    1
    32    29     1    1
    33    24     4    1
    34     4     1    1
    35     4    32    1
    36     1    28    1
    37     1    23    1
    38    25    27    1
    39    22    27    2
    40    27    23    1
    41    27    21    1
