@<TRIPOS>MOLECULE
XUJNEKJLAYXESH-REOHCLBHSA-N	6045493	-721.852748028695
 14 13 0 0 0
SMALL
MULLIKEN NwChem

@<TRIPOS>ATOM
      1 CB          0.3599   -1.2923   -0.3344 C.3     1  CYS1       -0.41999999999999993
      2 CA         -0.1653   -0.5405    0.8992 C.3     1  CYS1       -0.04999999999999982
      3 C           0.3322    0.9108    0.9548 C.2     1  CYS1       0.5899999999999999
      4 N          -1.6101   -0.6552    1.0076 N.3     1  CYS1        -0.75
      5 OXT        -0.3420    1.8595    1.2842 O.2     1  CYS1      -0.5099999999999998
      6 O           1.6466    1.0205    0.6289 O.3     1  CYS1      -0.5800000000000001
      7 SG         -0.1602   -0.5690   -1.9513 S.3     1  CYS1      -0.16000000000000014
      8 HB1        -0.0605   -2.3009   -0.3230 H       1  CYS1       0.20999999999999996
      9 HB2         1.4484   -1.3640   -0.3104 H       1  CYS1       0.20999999999999996
     10 HA          0.2863   -1.0335    1.7749 H       1  CYS1       0.20999999999999996
     11 H1         -1.9304   -0.0544    1.7659 H       1  CYS1       0.32999999999999996
     12 H2         -2.0256   -0.2642    0.1608 H       1  CYS1       0.32999999999999996
     13 H           1.8805    1.9624    0.7358 H       1  CYS1       0.44999999999999996
     14 HG          0.6607    0.5021   -1.8986 H       1  CYS1       0.15000000000000002
@<TRIPOS>BOND
     1     7    14    1
     2     7     1    1
     3     1     8    1
     4     1     9    1
     5     1     2    1
     6    12     4    1
     7     6    13    1
     8     6     3    1
     9     2     3    1
    10     2     4    1
    11     2    10    1
    12     3     5    2
    13     4    11    1
