@<TRIPOS>MOLECULE
XUYPXLNMDZIRQH-LURJTMIESA-M	6045494	-952.5720144623757
 24 23 0 0 0
SMALL
MULLIKEN NwChem

@<TRIPOS>ATOM
      1 C          -0.2237    1.2447   -2.7753 C.3     0  UNK0       -0.5499999999999998
      2 CE          1.3458    1.1233    2.6464 C.3     1  MET1      -0.6100000000000003
      3 CB          0.6549   -1.6547    0.0752 C.3     1  MET1      -0.2699999999999996
      4 CG          1.7164   -1.2276    1.0977 C.3     1  MET1      -0.40000000000000036
      5 C           0.2775    1.6663   -1.3616 C.2     0  UNK0       0.4900000000000002
      6 CA         -0.2742   -0.5275   -0.4736 C.3     1  MET1       -0.03000000000000025
      7 C          -1.6416   -0.5337    0.2665 C.2     1  MET1       0.5700000000000003
      8 N           0.3117    0.7824   -0.3496 N.am    1  MET1      -0.6200000000000001
      9 O           0.6220    2.8596   -1.2244 O.2     0  UNK0      -0.6699999999999999
     10 O          -2.4781   -1.4170    0.1471 O.2     1  MET1      -0.5600000000000005
     11 OXT        -1.8409    0.5677    0.9955 O.3     1  MET1      -0.6199999999999992
     12 SD          1.1568   -0.7004    2.7751 S.3     1  MET1      -0.030000000000001137
     13 H          -1.3027    1.0874   -2.7671 H       0  UNK0       0.17000000000000004
     14 H           0.2510    0.3321   -3.1724 H       0  UNK0       0.16000000000000003
     15 H           0.0073    2.0710   -3.4513 H       0  UNK0          0.14
     16 HE1         2.3915    1.4226    2.7639 H       1  MET1       0.18000000000000005
     17 HE2         0.9835    1.4448    1.6687 H       1  MET1       0.20999999999999996
     18 HE3         0.7550    1.5731    3.4466 H       1  MET1       0.18000000000000005
     19 HB1         0.0324   -2.4676    0.4684 H       1  MET1       0.15000000000000002
     20 HB2         1.2273   -2.0750   -0.7664 H       1  MET1       0.15000000000000002
     21 HG1         2.4009   -2.0642    1.2761 H       1  MET1       0.18000000000000005
     22 HG2         2.2884   -0.4000    0.6843 H       1  MET1       0.18000000000000005
     23 HA         -0.5452   -0.8440   -1.4951 H       1  MET1       0.15000000000000002
     24 HXT        -0.9831    1.0794    0.7957 H       1  MET1       0.43999999999999995
@<TRIPOS>BOND
     1    15     1    1
     2    14     1    1
     3     1    13    1
     4     1     5    1
     5    23     6    1
     6     5     9    2
     7     5     8   am
     8    20     3    1
     9     6     8    1
    10     6     3    1
    11     6     7    1
    12     3    19    1
    13     3     4    1
    14    10     7    2
    15     7    11    1
    16    22     4    1
    17    24    11    1
    18     4    21    1
    19     4    12    1
    20    17     2    1
    21     2    16    1
    22     2    12    1
    23     2    18    1
