@<TRIPOS>MOLECULE
XVOYSCVBGLVSOL-REOHCLBHSA-M	6045495	-946.9985911349556
 16 15 0 0 0
SMALL
MULLIKEN NwChem

@<TRIPOS>ATOM
      1 C1          0.3821    0.6480   -0.9947 C.3     1  <1>        -0.4900000000000002
      2 C2         -0.0790   -0.7431   -1.4223 C.3     1  <1>        -0.08000000000000007
      3 C3          0.7421   -1.8517   -0.6216 C.2     1  <1>        0.5499999999999998
      4 N1         -1.5294   -0.9693   -1.4239 N.3     1  <1>       -0.7999999999999998
      5 O1          0.0762   -2.8590   -0.2908 O.co2   1  <1>       -0.6600000000000001
      6 O2          1.9611   -1.5864   -0.4813 O.co2   1  <1>       -0.6600000000000001
      7 O3          0.8290    2.4275    0.9536 O.3     1  <1>       -0.6799999999999997
      8 O4         -1.5374    1.8357    0.4649 O.2     1  <1>       -0.5600000000000005
      9 O5         -0.0344    0.1825    1.6762 O.2     1  <1>       -0.5399999999999991
     10 S1         -0.2373    1.1798    0.6278 S.O2    1  <1>        1.1899999999999995
     11 H1          0.0670    1.4624   -1.6558 H       1  <1>        0.22999999999999998
     12 H2          1.4707    0.5950   -0.9071 H       1  <1>        0.22999999999999998
     13 H3          0.2998   -0.8224   -2.4567 H       1  <1>        0.16000000000000003
     14 H4         -1.6085   -1.8728   -0.9414 H       1  <1>        0.31000000000000005
     15 H5         -2.0048   -0.2818   -0.8415 H       1  <1>        0.31999999999999995
     16 H6          1.5755    2.0046    1.4174 H       1  <1>            0.48
@<TRIPOS>BOND
     1    13     2    1
     2    11     1    1
     3     4     2    1
     4     4    14    1
     5     4    15    1
     6     2     1    1
     7     2     3    1
     8     1    12    1
     9     1    10    1
    10     3     6   ar
    11     3     5   ar
    12     8    10    2
    13    10     7    1
    14    10     9    2
    15     7    16    1
