@<TRIPOS>MOLECULE
XWECMAHAKFWYNV-UHFFFAOYSA-K	6045496	-1516.987263860635
 23 23 0 0 0
SMALL
MULLIKEN NwChem

@<TRIPOS>ATOM
      1 C           0.3498    1.9815   -1.7372 C.3     1  LIG1      -0.5599999999999996
      2 C          -0.6539    0.7450    0.9739 C.3     1  LIG1       -0.33999999999999986
      3 C          -1.7611   -0.1389    0.3192 C.3     1  LIG1           0.0
      4 C           1.1804    1.1363   -0.8055 C.ar    1  LIG1       0.28000000000000025
      5 C           0.7201    0.6103    0.3822 C.ar    1  LIG1       -0.16999999999999993
      6 C           3.0986    0.1215   -0.2346 C.ar    1  LIG1           0.0
      7 C           4.5638   -0.3794   -0.2154 C.2     1  LIG1       0.5199999999999996
      8 N           2.5032    0.8591   -1.1295 N.ar    1  LIG1      -0.5099999999999998
      9 O           5.2873   -0.0301   -1.1784 O.co2   1  LIG1      -0.6600000000000001
     10 O           4.8565   -1.0871    0.7891 O.co2   1  LIG1      -0.6600000000000001
     11 O          -4.9370    1.9020    0.8936 O.3     1  LIG1      -0.7699999999999996
     12 O          -2.7290    2.5055   -0.3646 O.3     1  LIG1      -0.7699999999999996
     13 O          -4.3492    0.7422   -1.3736 O.2     1  LIG1      -0.7899999999999991
     14 O          -3.0162    0.1896    0.8121 O.3     1  LIG1      -0.6500000000000004
     15 P          -3.8677    1.4803   -0.1180 P.3     1  LIG1       0.9100000000000001
     16 S           2.0243   -0.3055    1.1232 S.2     1  LIG1      0.14000000000000057
     17 H          -0.6731    2.1454   -1.3630 H       1  LIG1       0.18999999999999995
     18 H           0.2793    1.5025   -2.7254 H       1  LIG1       0.16000000000000003
     19 H           0.8322    2.9589   -1.8993 H       1  LIG1       0.16000000000000003
     20 H          -0.6370    0.5335    2.0523 H       1  LIG1          0.14
     21 H          -1.0409    1.7621    0.8275 H       1  LIG1       0.17000000000000004
     22 H          -1.6977   -0.0190   -0.7749 H       1  LIG1       0.10999999999999999
     23 H          -1.5305   -1.2052    0.5386 H       1  LIG1       0.09999999999999998
@<TRIPOS>BOND
     1    18     1    1
     2    19     1    1
     3     1    17    1
     4     1     4    1
     5    13    15    2
     6     9     7   ar
     7     8     4   ar
     8     8     6   ar
     9     4     5   ar
    10    22     3    1
    11    12    15    1
    12     6     7    1
    13     6    16   ar
    14     7    10   ar
    15    15    14    1
    16    15    11    1
    17     3    23    1
    18     3    14    1
    19     3     2    1
    20     5     2    1
    21     5    16   ar
    22    21     2    1
    23     2    20    1
