@<TRIPOS>MOLECULE
XXJZWLKRFPCKLB-UHFFFAOYSA-L	6045497	-1124.6246499495007
 27 26 0 0 0
SMALL
MULLIKEN NwChem

@<TRIPOS>ATOM
      1 C          -1.1685    1.1562    3.6006 C.3     1  LIG1      -0.5899999999999999
      2 C          -1.4284    0.7162    0.1202 C.3     1  LIG1      -0.29000000000000004
      3 C          -2.0473   -0.6273    0.5376 C.3     1  LIG1      -0.2599999999999998
      4 C           0.1079    0.7989    0.2144 C.3     1  LIG1        -0.25
      5 C          -1.7089   -1.1196    1.9485 C.3     1  LIG1      -0.41999999999999993
      6 C           0.8639   -0.3900   -0.4029 C.3     1  LIG1       -0.2599999999999998
      7 C           0.4477   -0.6658   -1.8467 C.2     1  LIG1       0.3799999999999999
      8 C           2.4544   -0.2428   -0.2047 C.2     1  LIG1       0.5099999999999998
      9 C           0.5373    0.4529   -2.9203 C.2     1  LIG1       0.45999999999999996
     10 O          -0.0534   -1.7571   -2.1417 O.2     1  LIG1      -0.5600000000000005
     11 O           3.0950   -1.3042   -0.3897 O.co2   1  LIG1      -0.6699999999999999
     12 O           2.8602    0.8867    0.1669 O.co2   1  LIG1      -0.6600000000000001
     13 O          -0.3538    1.3432   -2.7746 O.co2   1  LIG1      -0.6300000000000008
     14 O           1.4018    0.3369   -3.8138 O.co2   1  LIG1      -0.6500000000000004
     15 S          -2.4256   -0.1546    3.3624 S.3     1  LIG1      -0.010000000000001563
     16 H          -1.4368    1.6993    4.5138 H       1  LIG1       0.18999999999999995
     17 H          -1.1443    1.8462    2.7559 H       1  LIG1       0.19999999999999996
     18 H          -0.1741    0.7173    3.7226 H       1  LIG1       0.18999999999999995
     19 H          -1.6776    0.8995   -0.9310 H       1  LIG1          0.14
     20 H          -1.8915    1.5282    0.7074 H       1  LIG1          0.13
     21 H          -1.6904   -1.3957   -0.1615 H       1  LIG1          0.14
     22 H          -3.1425   -0.5824    0.4372 H       1  LIG1          0.14
     23 H           0.4378    1.7059   -0.2966 H       1  LIG1          0.12
     24 H           0.4460    0.8958    1.2555 H       1  LIG1          0.13
     25 H          -0.6256   -1.1647    2.0983 H       1  LIG1       0.18999999999999995
     26 H          -2.0990   -2.1335    2.1035 H       1  LIG1       0.18000000000000005
     27 H           0.6162   -1.3198    0.1281 H       1  LIG1           0.13
@<TRIPOS>BOND
     1    14     9   ar
     2     9    13   ar
     3     9     7    1
     4    10     7    2
     5     7     6    1
     6    19     2    1
     7     6     8    1
     8     6    27    1
     9     6     4    1
    10    11     8   ar
    11    23     4    1
    12     8    12   ar
    13    21     3    1
    14     2     4    1
    15     2     3    1
    16     2    20    1
    17     4    24    1
    18    22     3    1
    19     3     5    1
    20     5    25    1
    21     5    26    1
    22     5    15    1
    23    17     1    1
    24    15     1    1
    25     1    18    1
    26     1    16    1
