@<TRIPOS>MOLECULE
XXQFKXPJJNBLSU-TXICZTDVSA-L	6045498	-1064.0913003980977
 22 22 0 0 0
SMALL
MULLIKEN NwChem

@<TRIPOS>ATOM
      1 C           0.5403   -3.2119   -1.2693 C.3     1  LIG1      -0.4800000000000004
      2 C           0.4065   -1.7336   -0.9472 C.3     1  LIG1       0.1299999999999999
      3 C           0.8055   -0.7795   -2.0754 C.3     1  LIG1       0.11000000000000032
      4 C           1.1296    0.5598   -1.2808 C.3     1  LIG1       0.09999999999999964
      5 C           1.4522    0.0171    0.1798 C.3     1  LIG1       0.34999999999999964
      6 O          -0.2109   -0.5023   -3.0080 O.3     1  LIG1      -0.7300000000000004
      7 O           0.0995    1.4264   -1.4676 O.3     1  LIG1      -0.7699999999999996
      8 O          -1.5291   -0.6377    1.1733 O.2     1  LIG1      -0.7100000000000009
      9 O          -0.9276    1.0802    3.0666 O.3     1  LIG1      -0.7100000000000009
     10 O          -1.3116    1.9013    0.6643 O.3     1  LIG1      -0.7699999999999996
     11 O           1.3272   -1.4167    0.1072 O.3     1  LIG1      -0.5500000000000007
     12 O           0.7975    0.5957    1.2617 O.3     1  LIG1      -0.6199999999999992
     13 P          -0.8797    0.6531    1.6223 P.3     1  LIG1           1.0
     14 H          -0.1265   -3.4696   -2.1026 H       1  LIG1       0.15000000000000002
     15 H           0.2781   -3.8312   -0.4016 H       1  LIG1       0.15000000000000002
     16 H           1.5743   -3.4495   -1.5625 H       1  LIG1          0.14
     17 H          -0.6133   -1.4967   -0.6188 H       1  LIG1          0.13
     18 H           1.7033   -1.1747   -2.5895 H       1  LIG1       0.09999999999999998
     19 H           2.1026    0.9720   -1.6643 H       1  LIG1       0.06000000000000005
     20 H           2.5226    0.1822    0.3915 H       1  LIG1       0.10999999999999999
     21 H          -0.4803    0.4024   -2.6152 H       1  LIG1          0.38
     22 H          -0.8055    1.7579   -0.2094 H       1  LIG1       0.43000000000000005
@<TRIPOS>BOND
     1     6    21    1
     2     6     3    1
     3    18     3    1
     4    14     1    1
     5     3     4    1
     6     3     2    1
     7    19     4    1
     8    16     1    1
     9     7     4    1
    10     4     5    1
    11     1     2    1
    12     1    15    1
    13     2    17    1
    14     2    11    1
    15    22    10    1
    16    11     5    1
    17     5    20    1
    18     5    12    1
    19    10    13    1
    20     8    13    2
    21    12    13    1
    22    13     9    1
