@<TRIPOS>MOLECULE
XZKIHKMTEMTJQX-UHFFFAOYSA-L	11083912	-1078.6565232926494
 18 17 0 0 0
SMALL
MULLIKEN NwChem

@<TRIPOS>ATOM
      1 C         -14.6154    0.4189    7.3644 C.2     1  LIG1      -0.16999999999999993
      2 C         -13.3908    2.4175    8.0614 C.2     1  LIG1      -0.16000000000000014
      3 C         -15.7284    0.8649    8.0298 C.2     1  LIG1        -0.25
      4 C         -14.5009    2.8702    8.7271 C.2     1  LIG1      -0.2599999999999998
      5 C         -13.4224    1.1840    7.3640 C.3     1  LIG1          0.25
      6 C         -15.7577    2.1281    8.7613 C.2     1  LIG1       0.41999999999999993
      7 N         -12.2779    0.7233    6.6772 N.pl3   1  LIG1       0.3200000000000003
      8 O         -12.3304   -0.3671    6.0579 O.2     1  LIG1      -0.5199999999999996
      9 O         -11.2301    1.4139    6.6993 O.2     1  LIG1      -0.5199999999999996
     10 O          46.8969   -4.6819  -25.6204 O.2     2  LIG2      -0.6500000000000004
     11 O          48.8388   -6.0948  -26.6370 O.3     2  LIG2      -0.6500000000000004
     12 O          47.0741   -4.9859  -28.2042 O.3     2  LIG2      -0.6500000000000004
     13 O         -16.7747    2.5396    9.3673 O.2     1  LIG1      -0.6899999999999995
     14 P          47.6032   -5.2544  -26.8204 P.3     2  LIG2       0.9399999999999995
     15 H         -14.6167   -0.5232    6.8258 H       1  LIG1       0.16000000000000003
     16 H         -12.4664    2.9858    8.0509 H       1  LIG1       0.16000000000000003
     17 H         -16.6462    0.2804    8.0348 H       1  LIG1          0.13
     18 H         -14.4810    3.8174    9.2623 H       1  LIG1           0.12
@<TRIPOS>BOND
     1    12    14    1
     2    14    11    1
     3    14    10    2
     4     8     7    2
     5     7     9    2
     6     7     5    1
     7    15     1    1
     8     5     1    1
     9     5     2    1
    10     1     3    2
    11     3    17    1
    12     3     6    1
    13    16     2    1
    14     2     4    2
    15     4     6    1
    16     4    18    1
    17     6    13    2
