@<TRIPOS>MOLECULE
YAVLYBVKPXLZEQ-UXBLZVDNSA-Q	6119257	-442.43375560574697
 30 28 0 0 0
SMALL
MULLIKEN NwChem

@<TRIPOS>ATOM
      1 C          -0.2128    0.5841    2.8912 C.3     1  LIG1      -0.29000000000000004
      2 C           0.2350    1.2122    1.5501 C.3     1  LIG1      -0.3200000000000003
      3 C           0.2406   -0.6112   -2.9337 C.3     1  LIG1      -0.29000000000000004
      4 C          -1.5153   -0.2000    2.7410 C.3     1  LIG1      -0.16999999999999993
      5 C           0.7489    0.7347   -3.4397 C.3     1  LIG1      -0.17999999999999972
      6 C           0.7399    0.2106    0.5411 C.2     1  LIG1      0.09999999999999964
      7 C           0.6676   -0.9693   -1.5002 C.3     1  LIG1       -0.16999999999999993
      8 N          -1.9852   -0.7268    4.0952 N.4     1  LIG1         -0.71
      9 N           2.2426    0.6782   -3.7831 N.4     1  LIG1         -0.71
     10 N           0.1343    0.0133   -0.5595 N.2     1  LIG1      -0.40000000000000036
     11 H           0.0553   -2.4899    5.3838 H       2  UNK2       0.020000000000000018
     12 H          -0.3536    1.3933    3.6186 H       1  LIG1       0.18000000000000005
     13 H           0.5776   -0.0701    3.2832 H       1  LIG1       0.18000000000000005
     14 H          -0.5843    1.7855    1.1038 H       1  LIG1       0.17000000000000004
     15 H           1.0464    1.9152    1.7774 H       1  LIG1       0.18000000000000005
     16 H           0.5205   -1.4147   -3.6276 H       1  LIG1       0.18000000000000005
     17 H          -0.8526   -0.5498   -2.9577 H       1  LIG1       0.18000000000000005
     18 H          -2.3278    0.4239    2.3604 H       1  LIG1       0.21999999999999997
     19 H          -1.4105   -1.0721    2.0915 H       1  LIG1       0.21999999999999997
     20 H           0.2510    1.0448   -4.3606 H       1  LIG1       0.21999999999999997
     21 H           0.6356    1.5180   -2.6863 H       1  LIG1       0.21999999999999997
     22 H           1.6642   -0.3276    0.8152 H       1  LIG1       0.15000000000000002
     23 H           1.7629   -1.0924   -1.4103 H       1  LIG1       0.16000000000000003
     24 H           0.2347   -1.9502   -1.2681 H       1  LIG1       0.18000000000000005
     25 H          -2.1552    0.0419    4.7572 H       1  LIG1      0.43999999999999995
     26 H          -2.8598   -1.2629    4.0183 H       1  LIG1      0.44999999999999996
     27 H          -1.2798   -1.3473    4.5282 H       1  LIG1      0.43000000000000005
     28 H           2.4252   -0.0040   -4.5309 H       1  LIG1      0.44999999999999996
     29 H           2.5941    1.5885   -4.1072 H       1  LIG1      0.44999999999999996
     30 H           2.8086    0.3988   -2.9728 H       1  LIG1      0.44999999999999996
@<TRIPOS>BOND
     1    28     9    1
     2    20     5    1
     3    29     9    1
     4     9     5    1
     5     9    30    1
     6    16     3    1
     7     5     3    1
     8     5    21    1
     9    17     3    1
    10     3     7    1
    11     7    23    1
    12     7    24    1
    13     7    10    1
    14    10     6    2
    15     6    22    1
    16     6     2    1
    17    14     2    1
    18     2    15    1
    19     2     1    1
    20    19     4    1
    21    18     4    1
    22     4     1    1
    23     4     8    1
    24     1    13    1
    25     1    12    1
    26    26     8    1
    27     8    27    1
    28     8    25    1
