@<TRIPOS>MOLECULE
YBISUHXEJDGADQ-UHFFFAOYSA-L	6045504	-1165.090975663385
 32 31 0 0 0
SMALL
MULLIKEN NwChem

@<TRIPOS>ATOM
      1 C          -1.2845    3.3480   -3.0433 C.3     1  LIG1      -0.5899999999999999
      2 C          -1.7435    0.4544   -1.0449 C.3     1  LIG1      -0.2599999999999998
      3 C          -0.2484    0.2204   -1.3573 C.3     1  LIG1      -0.28000000000000025
      4 C          -2.0236    1.4957    0.0501 C.3     1  LIG1      -0.29000000000000004
      5 C           0.6605    0.0743   -0.1222 C.3     1  LIG1      -0.2999999999999998
      6 C          -1.5017    2.9056   -0.2187 C.3     1  LIG1      -0.41999999999999993
      7 C           0.2658   -1.0459    0.8740 C.3     1  LIG1       -0.15000000000000036
      8 C           0.9303   -2.3929    0.5141 C.3     1  LIG1       0.040000000000000036
      9 C           0.3998   -0.5152    2.3515 C.2     1  LIG1       0.4900000000000002
     10 C           2.4927   -2.5173    0.6770 C.2     1  LIG1       0.5300000000000002
     11 O           0.3108   -3.4676    1.2149 O.3     1  LIG1      -0.7300000000000004
     12 O          -0.3285    0.5100    2.5859 O.co2   1  LIG1      -0.6600000000000001
     13 O           1.1605   -1.1010    3.1458 O.co2   1  LIG1      -0.6699999999999999
     14 O           2.8569   -3.5197    1.3628 O.co2   1  LIG1      -0.6799999999999997
     15 O           3.2168   -1.7054    0.0483 O.co2   1  LIG1      -0.6600000000000001
     16 S          -2.2968    3.8618   -1.6072 S.3     1  LIG1      -0.019999999999999574
     17 H          -1.5919    3.9612   -3.8978 H       1  LIG1       0.18999999999999995
     18 H          -1.4303    2.2930   -3.2836 H       1  LIG1       0.19999999999999996
     19 H          -0.2213    3.5203   -2.8472 H       1  LIG1       0.18999999999999995
     20 H          -2.1780   -0.4927   -0.7021 H       1  LIG1          0.13
     21 H          -2.2857    0.7154   -1.9701 H       1  LIG1          0.13
     22 H          -0.1685   -0.6778   -1.9886 H       1  LIG1          0.13
     23 H           0.1283    1.0523   -1.9770 H       1  LIG1          0.13
     24 H          -1.5438    1.1570    0.9907 H       1  LIG1       0.18000000000000005
     25 H          -3.1082    1.5541    0.2281 H       1  LIG1          0.12
     26 H           1.6890   -0.1191   -0.4460 H       1  LIG1          0.14
     27 H           0.6574    1.0230    0.4261 H       1  LIG1          0.13
     28 H          -0.4236    2.9029   -0.4086 H       1  LIG1       0.18999999999999995
     29 H          -1.6668    3.5370    0.6614 H       1  LIG1       0.18000000000000005
     30 H          -0.8152   -1.2354    0.7810 H       1  LIG1          0.12
     31 H           0.7567   -2.5403   -0.5751 H       1  LIG1       0.10999999999999999
     32 H           1.1198   -3.8260    1.6647 H       1  LIG1           0.39
@<TRIPOS>BOND
     1    17     1    1
     2    18     1    1
     3     1    19    1
     4     1    16    1
     5    22     3    1
     6    23     3    1
     7    21     2    1
     8    16     6    1
     9     3     2    1
    10     3     5    1
    11     2    20    1
    12     2     4    1
    13    31     8    1
    14    26     5    1
    15    28     6    1
    16     6     4    1
    17     6    29    1
    18     5    27    1
    19     5     7    1
    20    15    10   ar
    21     4    25    1
    22     4    24    1
    23     8    10    1
    24     8     7    1
    25     8    11    1
    26    10    14   ar
    27    30     7    1
    28     7     9    1
    29    11    32    1
    30     9    12   ar
    31     9    13   ar
