@<TRIPOS>MOLECULE
YBJHBAHKTGYVGT-ZKWXMUAHSA-M	6045505	-1123.4053034965668
 31 32 0 0 0
SMALL
MULLIKEN NwChem

@<TRIPOS>ATOM
      1 C           0.8316   -1.7442   -0.9183 C.3     1  LIG1      -0.28000000000000025
      2 C           0.0908   -3.0923   -0.8878 C.3     1  LIG1        -0.25
      3 C           0.5693   -0.8345    0.3000 C.3     1  LIG1      -0.2699999999999996
      4 C           0.3912   -3.9399    0.3516 C.3     1  LIG1       -0.34999999999999964
      5 C           0.1807    3.0086    0.7905 C.3     1  LIG1       -0.41000000000000014
      6 C           0.4048    2.8828   -0.7353 C.3     1  LIG1       -0.019999999999999574
      7 C           1.1566    0.5645    0.0841 C.3     1  LIG1       -0.2599999999999998
      8 C          -0.3349   -3.3985    1.6445 C.2     1  LIG1          0.54
      9 C           0.4933    1.3631   -1.0509 C.3     1  LIG1       0.03000000000000025
     10 C          -1.4577    2.3072   -1.6931 C.3     1  LIG1       0.6799999999999997
     11 N          -0.7717    3.3767   -1.4811 N.3     1  LIG1      -0.5499999999999998
     12 N          -0.9357    1.1092   -1.2784 N.3     1  LIG1      -0.6299999999999999
     13 O          -1.5169   -3.0041    1.4558 O.co2   1  LIG1      -0.6799999999999997
     14 O           0.3469   -3.4169    2.6970 O.co2   1  LIG1      -0.6899999999999995
     15 O          -2.6756    2.2814   -2.2733 O.3     1  LIG1      -0.6300000000000008
     16 S           1.1114    1.6530    1.6067 S.3     1  LIG1      -0.019999999999999574
     17 H           0.5597   -1.2180   -1.8502 H       1  LIG1          0.14
     18 H           1.9165   -1.9247   -0.9927 H       1  LIG1          0.13
     19 H          -0.9917   -2.9121   -0.8839 H       1  LIG1          0.12
     20 H           0.3399   -3.6322   -1.8168 H       1  LIG1          0.12
     21 H          -0.5023   -0.7739    0.5120 H       1  LIG1          0.14
     22 H           1.0080   -1.2934    1.1919 H       1  LIG1       0.15000000000000002
     23 H           0.0285   -4.9642    0.1745 H       1  LIG1          0.13
     24 H           1.4723   -4.0075    0.5374 H       1  LIG1       0.10999999999999999
     25 H          -0.8873    2.9130    1.0061 H       1  LIG1       0.18000000000000005
     26 H           0.5253    3.9743    1.1720 H       1  LIG1       0.18999999999999995
     27 H           1.3159    3.4112   -1.0300 H       1  LIG1       0.16000000000000003
     28 H           2.2188    0.4672   -0.1712 H       1  LIG1       0.18000000000000005
     29 H           1.0488    1.1894   -1.9855 H       1  LIG1       0.18000000000000005
     30 H          -1.2603    0.2368   -1.6727 H       1  LIG1          0.37
     31 H          -2.9080    3.2154   -2.4137 H       1  LIG1       0.44999999999999996
@<TRIPOS>BOND
     1    31    15    1
     2    15    10    1
     3    29     9    1
     4    17     1    1
     5    20     2    1
     6    10    11    1
     7    10    12    1
     8    30    12    1
     9    11     6    1
    10    12     9    1
    11     9     6    1
    12     9     7    1
    13    27     6    1
    14    18     1    1
    15     1     2    1
    16     1     3    1
    17     2    19    1
    18     2     4    1
    19     6     5    1
    20    28     7    1
    21     7     3    1
    22     7    16    1
    23    23     4    1
    24     3    21    1
    25     3    22    1
    26     4    24    1
    27     4     8    1
    28     5    25    1
    29     5    26    1
    30     5    16    1
    31    13     8   ar
    32     8    14   ar
