@<TRIPOS>MOLECULE
YCCILVSKPBXVIP-UHFFFAOYSA-N	6045506	-461.1862884390263
 20 20 0 0 0
SMALL
MULLIKEN NwChem

@<TRIPOS>ATOM
      1 C          -1.2637    0.6433   -0.1121 C.ar    1  LIG1      -0.20999999999999996
      2 C           0.7747   -0.4895   -0.6824 C.ar    1  LIG1      -0.21999999999999975
      3 C          -1.9305   -0.5795   -0.0429 C.ar    1  LIG1      -0.20999999999999996
      4 C           0.1246   -1.7195   -0.6140 C.ar    1  LIG1      -0.17999999999999972
      5 C           0.8364    2.0342   -0.4326 C.3     1  LIG1      -0.3600000000000003
      6 C           1.4905    2.3225    0.9328 C.3     1  LIG1       -0.040000000000000036
      7 C           0.0970    0.7160   -0.4344 C.ar    1  LIG1      0.13999999999999968
      8 C          -1.2353   -1.7679   -0.2919 C.ar    1  LIG1       0.33999999999999986
      9 O           2.4536    1.3446    1.2955 O.3     1  LIG1      -0.6699999999999999
     10 O          -1.8267   -3.0008   -0.2400 O.3     1  LIG1      -0.6799999999999997
     11 H          -1.8168    1.5590    0.0856 H       1  LIG1       0.15000000000000002
     12 H           1.8301   -0.4597   -0.9423 H       1  LIG1       0.15000000000000002
     13 H          -2.9909   -0.6112    0.2021 H       1  LIG1       0.16000000000000003
     14 H           0.6500   -2.6484   -0.8116 H       1  LIG1       0.15000000000000002
     15 H           1.6256    2.0281   -1.1938 H       1  LIG1       0.16000000000000003
     16 H           0.1527    2.8581   -0.6755 H       1  LIG1       0.16000000000000003
     17 H           2.0310    3.2742    0.8928 H       1  LIG1       0.15000000000000002
     18 H           0.7047    2.4158    1.7012 H       1  LIG1          0.14
     19 H           1.9847    0.4979    1.3753 H       1  LIG1       0.42000000000000004
     20 H          -2.7632   -2.8943   -0.0122 H       1  LIG1       0.44999999999999996
@<TRIPOS>BOND
     1    15     5    1
     2    12     2    1
     3    14     4    1
     4     2     4   ar
     5     2     7   ar
     6    16     5    1
     7     4     8   ar
     8     7     5    1
     9     7     1   ar
    10     5     6    1
    11     8    10    1
    12     8     3   ar
    13    10    20    1
    14     1     3   ar
    15     1    11    1
    16     3    13    1
    17    17     6    1
    18     6     9    1
    19     6    18    1
    20     9    19    1
