@<TRIPOS>MOLECULE
YCFFMSOLUMRAMD-UHFFFAOYSA-L	11083909	-1060.0851337366728
 21 21 0 0 0
SMALL
MULLIKEN NwChem

@<TRIPOS>ATOM
      1 C          -1.3974   -0.7090   -1.0414 C.3     1  LIG1       -0.41999999999999993
      2 C          -3.3389    0.5176    0.2447 C.ar    1  LIG1       -0.1299999999999999
      3 C           0.5138   -1.5442    0.4989 C.3     1  LIG1       -0.11000000000000032
      4 C          -2.1756    2.0748    1.0853 C.ar    1  LIG1       0.08000000000000007
      5 C          -2.0222    0.3604   -0.1758 C.ar    1  LIG1       0.21999999999999975
      6 C          -0.8338   -1.8207   -0.1655 C.2     1  LIG1       0.4500000000000002
      7 N          -3.4464    1.6258    1.0502 N.ar    1  LIG1      -0.5499999999999998
      8 N          -1.2702    1.3683    0.3769 N.ar    1  LIG1      -0.5599999999999996
      9 O          -1.4387   -2.8704    0.0294 O.2     1  LIG1      -0.5199999999999996
     10 O           2.5517    0.4079    1.2393 O.3     1  LIG1      -0.7200000000000006
     11 O           3.5000    0.1574   -1.2228 O.2     1  LIG1      -0.6999999999999993
     12 O           1.2845    1.3548   -0.8182 O.3     1  LIG1      -0.7699999999999996
     13 O           1.4722   -1.1939   -0.4786 O.3     1  LIG1      -0.5999999999999996
     14 P           2.3589    0.2503   -0.2501 P.3     1  LIG1       1.0500000000000007
     15 H          -2.1488   -1.1573   -1.7034 H       1  LIG1       0.16000000000000003
     16 H          -0.5847   -0.2747   -1.6328 H       1  LIG1       0.17000000000000004
     17 H          -4.2013   -0.1001    0.0014 H       1  LIG1       0.09999999999999998
     18 H           0.3880   -0.7463    1.2446 H       1  LIG1       0.17000000000000004
     19 H           0.8139   -2.4612    1.0301 H       1  LIG1       0.15000000000000002
     20 H          -1.8889    2.9618    1.6486 H       1  LIG1       0.10999999999999999
     21 H           0.4735    1.4311   -0.2403 H       1  LIG1       0.43000000000000005
@<TRIPOS>BOND
     1    15     1    1
     2    16     1    1
     3    11    14    2
     4     1     5    1
     5     1     6    1
     6    12    14    1
     7    12    21    1
     8    13    14    1
     9    13     3    1
    10    14    10    1
    11     5     2   ar
    12     5     8   ar
    13     6     9    2
    14     6     3    1
    15    17     2    1
    16     2     7   ar
    17     8     4   ar
    18     3    19    1
    19     3    18    1
    20     7     4   ar
    21     4    20    1
