@<TRIPOS>MOLECULE
YCJNYHCCOXVYAF-UHFFFAOYSA-M	11083908	-816.7522844102374
 24 24 0 0 0
SMALL
MULLIKEN NwChem

@<TRIPOS>ATOM
      1 C          -2.2838   -0.2913    2.7451 C.2     1  LIG1      -0.16999999999999993
      2 C          -1.0177   -0.2535    2.1941 C.2     1  LIG1        -0.25
      3 C          -3.4344   -0.1178    1.9586 C.3     1  LIG1       -0.2699999999999996
      4 C           0.8125    0.4379   -1.1575 C.3     1  LIG1       -0.46999999999999975
      5 C          -0.8624   -0.0265    0.7916 C.2     1  LIG1       0.05999999999999961
      6 C          -3.3683    0.1005    0.5584 C.2     1  LIG1       0.3799999999999999
      7 C           0.5137    0.0728    0.3063 C.2     1  LIG1       0.40000000000000036
      8 C           2.2816    0.7707   -1.2927 C.2     1  LIG1       0.4400000000000004
      9 C          -2.0124    0.1265   -0.0128 C.2     1  LIG1       0.08000000000000007
     10 C           3.2974   -0.3447   -0.9635 C.2     1  LIG1       0.5599999999999996
     11 N          -2.0433    0.3630   -1.3972 N.pl3   1  LIG1      -0.8300000000000001
     12 O          -4.3676    0.2464   -0.2228 O.2     1  LIG1      -0.7599999999999998
     13 O           1.5064   -0.0903    1.0342 O.2     1  LIG1      -0.5600000000000005
     14 O           2.7101    1.8474   -1.6477 O.2     1  LIG1      -0.46000000000000085
     15 O           2.7858   -1.5764   -1.2234 O.3     1  LIG1      -0.5800000000000001
     16 O           4.4334   -0.1597   -0.5993 O.2     1  LIG1         -0.5
     17 H          -2.3954   -0.4616    3.8167 H       1  LIG1          0.12
     18 H          -0.1242   -0.3740    2.7953 H       1  LIG1          0.12
     19 H          -4.4258   -0.1692    2.4047 H       1  LIG1       0.09999999999999998
     20 H           0.1998    1.2752   -1.5012 H       1  LIG1       0.20999999999999996
     21 H           0.5898   -0.4263   -1.7988 H       1  LIG1       0.21999999999999997
     22 H          -3.0493    0.3420   -1.6237 H       1  LIG1       0.32999999999999996
     23 H          -1.5228   -0.3020   -1.9592 H       1  LIG1          0.35
     24 H           3.4741   -2.2129   -0.9551 H       1  LIG1       0.44999999999999996
@<TRIPOS>BOND
     1    23    11    1
     2    21     4    1
     3    14     8    2
     4    22    11    1
     5    20     4    1
     6    11     9    1
     7     8     4    1
     8     8    10    1
     9    15    10    1
    10    15    24    1
    11     4     7    1
    12    10    16    2
    13    12     6    2
    14     9     6    1
    15     9     5    2
    16     7     5    1
    17     7    13    2
    18     6     3    1
    19     5     2    1
    20     3    19    1
    21     3     1    1
    22     2     1    2
    23     2    18    1
    24     1    17    1
