@<TRIPOS>MOLECULE
YCLWEYIBFOLMEM-FZPGBCFJSA-N	6045510	-1194.0322704172545
 56 59 0 0 0
SMALL
MULLIKEN NwChem

@<TRIPOS>ATOM
      1 C           0.9522   -0.8535   -2.3222 C.3     1  LIG1      -0.4900000000000002
      2 C          -0.8595    0.8434    3.6993 C.3     1  LIG1         -0.5
      3 C           0.3971    2.2751   -2.3675 C.3     1  LIG1      -0.28000000000000025
      4 C           0.0821    2.5453   -0.8959 C.3     1  LIG1      -0.28000000000000025
      5 C          -2.0348   -0.8712   -4.0333 C.3     1  LIG1       -0.3700000000000001
      6 C           1.2573    2.3152    2.0723 C.3     1  LIG1      -0.2999999999999998
      7 C          -1.5530   -1.1416   -2.5998 C.3     1  LIG1      -0.3099999999999996
      8 C           2.1738    1.1843    2.5920 C.3     1  LIG1      -0.3200000000000003
      9 C          -1.8899    1.5751   -3.2943 C.3     1  LIG1       -0.3799999999999999
     10 C          -1.0826   -0.6880    1.7565 C.3     1  LIG1       -0.3899999999999997
     11 C           1.5990   -2.6686    2.2616 C.3     1  LIG1       -0.1200000000000001
     12 C          -0.4491    1.1394   -2.9715 C.3     1  LIG1      -0.1200000000000001
     13 C          -2.6055    0.5345   -4.1528 C.2     1  LIG1       0.46999999999999975
     14 C           0.2627    1.2773   -0.0454 C.3     1  LIG1      -0.1200000000000001
     15 C           0.0318    1.6019    1.4534 C.3     1  LIG1      -0.09999999999999964
     16 C          -0.7380   -1.0261    0.3175 C.2     1  LIG1       0.46999999999999975
     17 C           1.7772   -1.2184    1.8010 C.2     1  LIG1       0.3899999999999997
     18 C          -0.6810    0.1761   -0.6157 C.3     1  LIG1       -0.21999999999999975
     19 C          -0.4186   -0.1741   -2.1147 C.3     1  LIG1      0.1299999999999999
     20 C          -0.1734    0.3840    2.3949 C.3     1  LIG1       0.05999999999999961
     21 C           1.3056   -0.0984    2.7528 C.3     1  LIG1       0.2599999999999998
     22 O           1.7001   -3.5896    1.2117 O.3     1  LIG1      -0.6699999999999999
     23 O          -3.5533    0.8133   -4.8604 O.2     1  LIG1      -0.5299999999999994
     24 O          -0.5649   -2.1852   -0.0295 O.2     1  LIG1      -0.5299999999999994
     25 O           2.2431   -0.9610    0.7077 O.2     1  LIG1      -0.4900000000000002
     26 O           1.3987   -0.6965    4.0469 O.3     1  LIG1      -0.6999999999999993
     27 H           1.0471   -1.1658   -3.3697 H       1  LIG1       0.15000000000000002
     28 H           1.0647   -1.7334   -1.6893 H       1  LIG1       0.16000000000000003
     29 H           1.7873   -0.1836   -2.1007 H       1  LIG1       0.15000000000000002
     30 H          -1.0346   -0.0054    4.3670 H       1  LIG1       0.16000000000000003
     31 H          -0.2718    1.5929    4.2424 H       1  LIG1       0.17000000000000004
     32 H          -1.8285    1.2995    3.4698 H       1  LIG1       0.17000000000000004
     33 H           0.2532    3.1869   -2.9613 H       1  LIG1          0.14
     34 H           1.4601    2.0178   -2.4543 H       1  LIG1          0.14
     35 H          -0.9525    2.9045   -0.7868 H       1  LIG1          0.14
     36 H           0.7276    3.3500   -0.5242 H       1  LIG1          0.14
     37 H          -1.1979   -0.9600   -4.7418 H       1  LIG1       0.18999999999999995
     38 H          -2.7973   -1.5878   -4.3525 H       1  LIG1       0.16000000000000003
     39 H           1.7725    2.9560    1.3513 H       1  LIG1       0.15000000000000002
     40 H           0.9381    2.9665    2.8929 H       1  LIG1       0.16000000000000003
     41 H          -2.4237   -1.0547   -1.9360 H       1  LIG1       0.15000000000000002
     42 H          -1.2142   -2.1749   -2.5023 H       1  LIG1       0.16000000000000003
     43 H           2.6433    1.4321    3.5499 H       1  LIG1       0.16000000000000003
     44 H           2.9800    0.9833    1.8826 H       1  LIG1       0.17000000000000004
     45 H          -2.4820    1.7115   -2.3776 H       1  LIG1       0.18999999999999995
     46 H          -1.9208    2.5345   -3.8223 H       1  LIG1       0.17000000000000004
     47 H          -1.1015   -1.6072    2.3475 H       1  LIG1       0.18000000000000005
     48 H          -2.1080   -0.2904    1.7457 H       1  LIG1       0.18999999999999995
     49 H           2.4025   -2.8776    2.9790 H       1  LIG1       0.19999999999999996
     50 H           0.6627   -2.7587    2.8317 H       1  LIG1       0.18000000000000005
     51 H           0.0183    0.8926   -3.9351 H       1  LIG1          0.14
     52 H           1.2896    0.9200   -0.1595 H       1  LIG1       0.16000000000000003
     53 H          -0.8622    2.2387    1.5137 H       1  LIG1          0.14
     54 H          -1.6981    0.6027   -0.5504 H       1  LIG1       0.18000000000000005
     55 H           0.9879   -3.3709    0.5840 H       1  LIG1       0.43999999999999995
     56 H           1.2501   -0.0103    4.7135 H       1  LIG1       0.43999999999999995
@<TRIPOS>BOND
     1    23    13    2
     2    37     5    1
     3    38     5    1
     4    13     5    1
     5    13     9    1
     6     5     7    1
     7    51    12    1
     8    46     9    1
     9    27     1    1
    10     9    12    1
    11     9    45    1
    12    12     3    1
    13    12    19    1
    14    33     3    1
    15     7    42    1
    16     7    19    1
    17     7    41    1
    18    34     3    1
    19     3     4    1
    20     1    19    1
    21     1    29    1
    22     1    28    1
    23    19    18    1
    24     4    35    1
    25     4    36    1
    26     4    14    1
    27    18    54    1
    28    18    14    1
    29    18    16    1
    30    52    14    1
    31    14    15    1
    32    24    16    2
    33    16    10    1
    34    55    22    1
    35    25    17    2
    36    22    11    1
    37    39     6    1
    38    15    53    1
    39    15     6    1
    40    15    20    1
    41    48    10    1
    42    10    47    1
    43    10    20    1
    44    17    11    1
    45    17    21    1
    46    44     8    1
    47     6     8    1
    48     6    40    1
    49    11    50    1
    50    11    49    1
    51    20    21    1
    52    20     2    1
    53     8    21    1
    54     8    43    1
    55    21    26    1
    56    32     2    1
    57     2    31    1
    58     2    30    1
    59    26    56    1
