@<TRIPOS>MOLECULE
YDBYJHTYSHBBAU-YFKPBYRVSA-O	6045511	-840.133705605748
 24 23 0 0 0
SMALL
MULLIKEN NwChem

@<TRIPOS>ATOM
      1 C          -0.1845    2.2563   -0.6589 C.3     1  LIG1      -0.6399999999999997
      2 C          -2.5687    1.5943    0.7573 C.3     1  LIG1      -0.6299999999999999
      3 C          -0.5535   -1.0249    0.6372 C.3     1  LIG1      -0.28000000000000025
      4 C          -0.1264    0.1878    1.4627 C.3     1  LIG1      -0.46999999999999975
      5 CA          0.0501   -1.2049   -0.7780 C.3     1  LIG1       -0.05999999999999961
      6 C           1.5812   -1.2915   -0.6950 C.2     1  LIG1       0.5899999999999999
      7 N          -0.5632   -2.3799   -1.3687 N.3     1  LIG1        -0.75
      8 O           2.2119   -2.3164   -0.7071 O.2     1  LIG1         -0.5
      9 OXT         2.1585   -0.0576   -0.5732 O.3     1  LIG1      -0.5800000000000001
     10 S          -0.7859    1.8630    1.0225 S.3     1  LIG1      0.5700000000000003
     11 H          -0.2578    3.3403   -0.7717 H       1  LIG1          0.25
     12 H          -0.7904    1.7502   -1.4119 H       1  LIG1          0.25
     13 H           0.8564    1.9318   -0.7219 H       1  LIG1          0.25
     14 H          -2.7386    0.8586   -0.0312 H       1  LIG1          0.26
     15 H          -2.9975    1.2583    1.7045 H       1  LIG1          0.25
     16 H          -3.0006    2.5602    0.4847 H       1  LIG1          0.25
     17 H          -0.2650   -1.8989    1.2374 H       1  LIG1       0.19999999999999996
     18 H          -1.6414   -1.0849    0.5397 H       1  LIG1       0.19999999999999996
     19 H           0.9561    0.3410    1.4665 H       1  LIG1          0.25
     20 H          -0.4550    0.0865    2.5026 H       1  LIG1          0.26
     21 HA         -0.2006   -0.3417   -1.4013 H       1  LIG1       0.19999999999999996
     22 H1         -0.3283   -2.4413   -2.3577 H       1  LIG1       0.33999999999999997
     23 H2         -0.1721   -3.2192   -0.9401 H       1  LIG1       0.32999999999999996
     24 HXT         3.1269   -0.1927   -0.5354 H       1  LIG1       0.44999999999999996
@<TRIPOS>BOND
     1    22     7    1
     2    12     1    1
     3    21     5    1
     4     7    23    1
     5     7     5    1
     6     5     6    1
     7     5     3    1
     8    11     1    1
     9    13     1    1
    10     8     6    2
    11     6     9    1
    12     1    10    1
    13     9    24    1
    14    14     2    1
    15    16     2    1
    16    18     3    1
    17     3    17    1
    18     3     4    1
    19     2    10    1
    20     2    15    1
    21    10     4    1
    22     4    19    1
    23     4    20    1
