@<TRIPOS>MOLECULE
YDFKTEAAIYLUQP-WNHJEKBPSA-L	11164700	-2394.1851687187823
 115 114 0 0 0
SMALL
MULLIKEN NwChem

@<TRIPOS>ATOM
      1 C           2.2047   -1.2942    4.1854 C.3     1  LIG1      -0.46999999999999975
      2 C          -1.6425   -3.9594   -0.2061 C.3     1  LIG1         -0.5
      3 C           1.8829    0.0123    3.4541 C.3     1  LIG1      -0.2999999999999998
      4 C          -0.6527   -5.1180   -0.0311 C.3     1  LIG1        -0.25
      5 C           3.0074    0.4948    2.5203 C.3     1  LIG1        -0.25
      6 C           0.6124   -4.7494    0.7681 C.3     1  LIG1      -0.2699999999999996
      7 C           3.3712   -0.4626    1.3681 C.3     1  LIG1      -0.28000000000000025
      8 C           0.3540   -4.0942    2.1343 C.3     1  LIG1      -0.3200000000000003
      9 C           2.1692   -0.7688    0.4756 C.3     1  LIG1      -0.2699999999999996
     10 C          -0.4654   -4.9530    3.1077 C.3     1  LIG1      -0.2599999999999998
     11 C           2.4694   -1.5947   -0.7880 C.3     1  LIG1      -0.3200000000000003
     12 C          -0.8220   -4.2360    4.4252 C.3     1  LIG1      -0.2699999999999996
     13 C           3.0714   -0.8077   -1.9158 C.2     1  LIG1      -0.1299999999999999
     14 C          -1.7187   -2.9926    4.2638 C.3     1  LIG1      -0.29000000000000004
     15 C           4.3063   -0.9397   -2.4183 C.2     1  LIG1      -0.11000000000000032
     16 C          -3.1260   -3.2955    3.7106 C.3     1  LIG1      -0.2599999999999998
     17 C           4.8256   -0.2285   -3.6427 C.3     1  LIG1      -0.3200000000000003
     18 C           6.1729    0.5151   -3.4973 C.3     1  LIG1      -0.2699999999999996
     19 C          -3.7947   -2.0752    3.0584 C.3     1  LIG1      -0.2999999999999998
     20 C           6.1230    1.8082   -2.6624 C.3     1  LIG1      -0.2699999999999996
     21 C          -4.2154   -0.9643    4.0354 C.3     1  LIG1      -0.2699999999999996
     22 C           6.2836    1.6199   -1.1453 C.3     1  LIG1      -0.28000000000000025
     23 C          -4.4232    0.3930    3.3413 C.3     1  LIG1      -0.2599999999999998
     24 C           6.0001    2.9143   -0.3443 C.3     1  LIG1      -0.2699999999999996
     25 C          -5.3690    0.3604    2.1359 C.3     1  LIG1      -0.2400000000000002
     26 C           4.5964    2.9653    0.2943 C.3     1  LIG1      -0.29000000000000004
     27 C          -5.5657    1.7506    1.5118 C.3     1  LIG1      -0.2699999999999996
     28 C           3.4226    2.7176   -0.6646 C.3     1  LIG1      -0.29000000000000004
     29 C          -6.0676    1.7081    0.0550 C.3     1  LIG1      -0.2599999999999998
     30 C           3.1444    3.8874   -1.6253 C.3     1  LIG1      -0.2599999999999998
     31 C          -4.9518    1.3543   -0.9387 C.3     1  LIG1       -0.3899999999999997
     32 C           2.4502    3.4565   -2.9242 C.3     1  LIG1       -0.3899999999999997
     33 C          -1.8586    2.9298   -2.1628 C.3     1  LIG1       -0.08999999999999986
     34 C          -0.9326    2.3186    0.1658 C.3     1  LIG1       -0.05999999999999961
     35 C          -0.7503    2.2449   -1.3610 C.3     1  LIG1       0.08000000000000007
     36 C          -4.0161    2.5081   -1.2007 C.2     1  LIG1       0.6600000000000001
     37 C           1.1762    2.6315   -2.7738 C.2     1  LIG1       0.6600000000000001
     38 O          -4.0830    3.6180   -0.7029 O.2     1  LIG1      -0.5399999999999991
     39 O           0.8354    1.8037   -3.5984 O.2     1  LIG1      -0.5500000000000007
     40 O          -2.7056    0.1429    0.6422 O.3     1  LIG1      -0.7200000000000006
     41 O          -0.7684   -1.0800    1.8615 O.3     1  LIG1      -0.7200000000000006
     42 O          -0.7013   -0.8060   -0.7228 O.2     1  LIG1      -0.7699999999999996
     43 O          -3.0502    2.1344   -2.0754 O.3     1  LIG1      -0.4800000000000004
     44 O          -0.3647    1.2361    0.8436 O.3     1  LIG1      -0.6500000000000004
     45 O           0.4952    2.9717   -1.6783 O.3     1  LIG1      -0.4800000000000004
     46 P          -1.2273   -0.2911    0.6252 P.3     1  LIG1          1.17
     47 H           2.3432   -2.1152    3.4750 H       1  LIG1       0.16000000000000003
     48 H           3.1217   -1.2144    4.7916 H       1  LIG1          0.14
     49 H           1.3792   -1.5840    4.8469 H       1  LIG1          0.14
     50 H          -1.1749   -3.0584   -0.6223 H       1  LIG1       0.17000000000000004
     51 H          -2.4750   -4.2582   -0.8589 H       1  LIG1          0.13
     52 H          -2.0674   -3.6483    0.7536 H       1  LIG1       0.15000000000000002
     53 H           0.9514   -0.1162    2.8879 H       1  LIG1       0.18000000000000005
     54 H           1.6945    0.8026    4.1977 H       1  LIG1          0.12
     55 H          -0.3371   -5.4866   -1.0204 H       1  LIG1          0.12
     56 H          -1.1569   -5.9699    0.4538 H       1  LIG1          0.13
     57 H           3.9148    0.7114    3.1130 H       1  LIG1          0.12
     58 H           2.6812    1.4476    2.0821 H       1  LIG1          0.13
     59 H           1.2054   -4.0466    0.1685 H       1  LIG1          0.13
     60 H           1.2294   -5.6572    0.8929 H       1  LIG1          0.12
     61 H           4.1839   -0.0150    0.7744 H       1  LIG1          0.13
     62 H           3.7857   -1.3994    1.7747 H       1  LIG1          0.12
     63 H          -0.1257   -3.1198    1.9738 H       1  LIG1       0.18999999999999995
     64 H           1.3255   -3.8726    2.6015 H       1  LIG1          0.12
     65 H           1.6739    0.1601    0.1801 H       1  LIG1       0.15000000000000002
     66 H           1.4020   -1.2938    1.0487 H       1  LIG1       0.15000000000000002
     67 H          -1.3916   -5.2804    2.6187 H       1  LIG1          0.14
     68 H           0.0882   -5.8795    3.3407 H       1  LIG1       0.10999999999999999
     69 H           3.1061   -2.4605   -0.5444 H       1  LIG1          0.12
     70 H           1.4909   -1.9586   -1.1274 H       1  LIG1          0.14
     71 H          -1.3091   -4.9585    5.1035 H       1  LIG1       0.10999999999999999
     72 H           0.1138   -3.9328    4.9203 H       1  LIG1          0.12
     73 H           2.3930   -0.0826   -2.3724 H       1  LIG1          0.12
     74 H          -1.8088   -2.5026    5.2451 H       1  LIG1       0.10999999999999999
     75 H          -1.2401   -2.2668    3.5949 H       1  LIG1       0.18000000000000005
     76 H           4.9870   -1.6695   -1.9690 H       1  LIG1          0.12
     77 H          -3.0473   -4.0728    2.9393 H       1  LIG1          0.13
     78 H          -3.7650   -3.7240    4.5044 H       1  LIG1       0.10999999999999999
     79 H           4.0624    0.4754   -4.0035 H       1  LIG1       0.15000000000000002
     80 H           4.9545   -0.9707   -4.4497 H       1  LIG1          0.14
     81 H           6.9264   -0.1682   -3.0749 H       1  LIG1          0.13
     82 H           6.5260    0.7651   -4.5093 H       1  LIG1          0.13
     83 H          -4.6804   -2.4065    2.4961 H       1  LIG1       0.10999999999999999
     84 H          -3.0971   -1.6510    2.3278 H       1  LIG1       0.19999999999999996
     85 H           6.9141    2.4947   -3.0029 H       1  LIG1          0.13
     86 H           5.1775    2.3227   -2.8697 H       1  LIG1       0.15000000000000002
     87 H          -5.1298   -1.2678    4.5769 H       1  LIG1       0.10999999999999999
     88 H          -3.4365   -0.8372    4.8006 H       1  LIG1          0.12
     89 H           5.6211    0.8170   -0.8041 H       1  LIG1       0.16000000000000003
     90 H           7.3088    1.2706   -0.9524 H       1  LIG1          0.13
     91 H          -3.4534    0.7256    2.9539 H       1  LIG1          0.14
     92 H          -4.7733    1.1365    4.0788 H       1  LIG1       0.09999999999999998
     93 H           6.1516    3.7833   -1.0030 H       1  LIG1          0.14
     94 H           6.7393    3.0241    0.4619 H       1  LIG1          0.13
     95 H          -4.9122   -0.2950    1.3911 H       1  LIG1       0.15000000000000002
     96 H          -6.3497   -0.0676    2.4110 H       1  LIG1       0.10999999999999999
     97 H           4.4645    3.9382    0.7931 H       1  LIG1          0.12
     98 H           4.5596    2.2107    1.0861 H       1  LIG1       0.15000000000000002
     99 H          -6.2621    2.3418    2.1285 H       1  LIG1          0.12
    100 H          -4.6089    2.2830    1.5248 H       1  LIG1          0.12
    101 H           3.6110    1.8004   -1.2336 H       1  LIG1       0.16000000000000003
    102 H           2.5137    2.5093   -0.0916 H       1  LIG1          0.14
    103 H          -6.4998    2.6804   -0.2201 H       1  LIG1          0.13
    104 H          -6.8739    0.9638   -0.0307 H       1  LIG1          0.13
    105 H           2.5308    4.6377   -1.1126 H       1  LIG1          0.14
    106 H           4.0845    4.3863   -1.9033 H       1  LIG1       0.15000000000000002
    107 H          -4.2825    0.5678   -0.5448 H       1  LIG1       0.21999999999999997
    108 H          -5.3443    1.0053   -1.9037 H       1  LIG1       0.17000000000000004
    109 H           3.1223    2.8521   -3.5428 H       1  LIG1       0.18999999999999995
    110 H           2.1867    4.3408   -3.5238 H       1  LIG1       0.18999999999999995
    111 H          -2.0530    3.9442   -1.7998 H       1  LIG1       0.18000000000000005
    112 H          -1.5861    2.9573   -3.2216 H       1  LIG1       0.18000000000000005
    113 H          -2.0039    2.3888    0.3869 H       1  LIG1          0.14
    114 H          -0.4551    3.2509    0.5123 H       1  LIG1          0.14
    115 H          -0.6472    1.1960   -1.6590 H       1  LIG1       0.18000000000000005
@<TRIPOS>BOND
     1    82    18    1
     2    80    17    1
     3    79    17    1
     4    17    18    1
     5    17    15    1
     6    39    37    2
     7   109    32    1
     8   110    32    1
     9    18    81    1
    10    18    20    1
    11   112    33    1
    12    85    20    1
    13    32    37    1
    14    32    30    1
    15    86    20    1
    16    37    45    1
    17    20    22    1
    18    15    76    1
    19    15    13    2
    20    73    13    1
    21    33    43    1
    22    33   111    1
    23    33    35    1
    24    43    36    1
    25    13    11    1
    26   108    31    1
    27   106    30    1
    28    45    35    1
    29   115    35    1
    30    30   105    1
    31    30    28    1
    32    35    34    1
    33   101    28    1
    34    36    31    1
    35    36    38    2
    36    22    90    1
    37    22    89    1
    38    22    24    1
    39    70    11    1
    40    55     4    1
    41    93    24    1
    42    31   107    1
    43    31    29    1
    44    51     2    1
    45    11    69    1
    46    11     9    1
    47    42    46    2
    48    28   102    1
    49    28    26    1
    50    50     2    1
    51    24    26    1
    52    24    94    1
    53   103    29    1
    54     2     4    1
    55     2    52    1
    56     4    56    1
    57     4     6    1
    58   104    29    1
    59    29    27    1
    60    34   113    1
    61    34   114    1
    62    34    44    1
    63    59     6    1
    64    65     9    1
    65    26    97    1
    66    26    98    1
    67     9    66    1
    68     9     7    1
    69    46    40    1
    70    46    44    1
    71    46    41    1
    72     6    60    1
    73     6     8    1
    74    61     7    1
    75     7    62    1
    76     7     5    1
    77    95    25    1
    78    27   100    1
    79    27    99    1
    80    27    25    1
    81    63     8    1
    82    58     5    1
    83     8    64    1
    84     8    10    1
    85    25    96    1
    86    25    23    1
    87    84    19    1
    88    83    19    1
    89     5    57    1
    90     5     3    1
    91    67    10    1
    92    53     3    1
    93    77    16    1
    94    91    23    1
    95    19    16    1
    96    19    21    1
    97    10    68    1
    98    10    12    1
    99    23    21    1
   100    23    92    1
   101     3     1    1
   102     3    54    1
   103    47     1    1
   104    75    14    1
   105    16    14    1
   106    16    78    1
   107    21    87    1
   108    21    88    1
   109     1    48    1
   110     1    49    1
   111    14    12    1
   112    14    74    1
   113    12    72    1
   114    12    71    1
