@<TRIPOS>MOLECULE
YEESKJGWJFYOOK-IJHYULJSSA-M	11083904	-1934.7704964678312
 73 72 0 0 0
SMALL
MULLIKEN NwChem

@<TRIPOS>ATOM
      1 C           4.0521   -0.7794    3.0271 C.3     1  UNK1      -0.46999999999999975
      2 C           5.1142   -1.3378    2.0759 C.3     1  UNK1      -0.2599999999999998
      3 C           4.5518   -2.2228    0.9489 C.3     1  UNK1      -0.2599999999999998
      4 C           3.5023   -1.5138    0.0722 C.3     1  UNK1      -0.2699999999999996
      5 C           3.3017   -2.1551   -1.3225 C.3     1  UNK1      -0.33000000000000007
      6 C           4.4693   -1.8982   -2.2413 C.2     1  UNK1      -0.1200000000000001
      7 C           4.5686   -0.9718   -3.2014 C.2     1  UNK1      -0.11000000000000032
      8 C           3.5016    0.0101   -3.6377 C.3     1  UNK1      -0.3600000000000003
      9 C           3.8477    1.4404   -3.2733 C.2     1  UNK1      -0.13999999999999968
     10 C           3.3624    2.1315   -2.2194 C.2     1  UNK1      -0.1299999999999999
     11 C           2.4482    1.6169   -1.2215 C.2     1  UNK1      -0.17999999999999972
     12 C           1.9244    2.3364   -0.1971 C.2     1  UNK1      -0.16000000000000014
     13 C           0.9906    1.8267    0.8000 C.2     1  UNK1      -0.13999999999999968
     14 C           0.7815   -3.2995    2.5693 C.3     1  UNK1      -0.28000000000000025
     15 C           0.4454   -1.8004    2.6188 C.3     1  UNK1      -0.29000000000000004
     16 C           0.2793    0.6949    0.6513 C.2     1  UNK1      -0.09999999999999964
     17 C          -0.3186   -4.2390    3.0792 C.3     1  UNK1       -0.3700000000000001
     18 CA         -2.0144    3.9966   -0.7472 C.3     2  GLY2       -0.23000000000000043
     19 C          -2.6443    0.1315   -0.6530 C.3     1  UNK1       -0.4500000000000002
     20 C          -2.7004    1.2213   -1.7473 C.3     1  UNK1       -0.04999999999999982
     21 C          -0.7016   -1.3813    1.6770 C.3     1  UNK1       0.16000000000000014
     22 C          -0.7632    0.1635    1.5782 C.3     1  UNK1       -0.33000000000000007
     23 C          -1.4843   -4.6267    2.1043 C.2     1  UNK1       0.5599999999999996
     24 C          -1.2819    4.8706    0.2563 C.2     2  GLY2       0.5800000000000001
     25 C          -1.3961    2.0009   -1.8577 C.2     1  UNK1       0.5700000000000003
     26 N          -3.0207    0.6792   -3.0780 N.3     1  UNK1      -0.7699999999999996
     27 N          -1.0936    3.1761   -1.4830 N.2     2  GLY2      -0.5099999999999998
     28 O          -0.5170   -1.9070    0.3797 O.3     1  UNK1      -0.7100000000000009
     29 O          -1.4052   -4.2390    0.8870 O.co2   1  UNK1      -0.6799999999999997
     30 O          -2.3737   -5.3316    2.6083 O.co2   1  UNK1      -0.6500000000000004
     31 O          -0.1129    4.8422    0.5594 O.2     2  GLY2      -0.4900000000000002
     32 OXT        -2.1594    5.7434    0.8335 O.3     2  GLY2      -0.5899999999999999
     33 O          -0.4410    1.2567   -2.4706 O.2     1  UNK1      -0.6400000000000006
     34 S          -2.4623    0.7860    1.0646 S.3     1  UNK1      0.009999999999999787
     35 H           3.4716   -1.5885    3.4865 H       1  UNK1       0.16000000000000003
     36 H           4.5084   -0.1927    3.8340 H       1  UNK1          0.14
     37 H           3.3486   -0.1303    2.4979 H       1  UNK1       0.15000000000000002
     38 H           5.8502   -1.9171    2.6534 H       1  UNK1          0.13
     39 H           5.6676   -0.5036    1.6246 H       1  UNK1          0.13
     40 H           4.1076   -3.1337    1.3782 H       1  UNK1          0.13
     41 H           5.3957   -2.5551    0.3274 H       1  UNK1          0.14
     42 H           3.7984   -0.4661   -0.0678 H       1  UNK1          0.14
     43 H           2.5353   -1.5042    0.5822 H       1  UNK1       0.15000000000000002
     44 H           2.3683   -1.7783   -1.7531 H       1  UNK1       0.15000000000000002
     45 H           3.1589   -3.2361   -1.1970 H       1  UNK1       0.15000000000000002
     46 H           5.3543   -2.5073   -2.0522 H       1  UNK1          0.14
     47 H           5.5196   -0.8795   -3.7298 H       1  UNK1          0.13
     48 H           3.3916   -0.0518   -4.7315 H       1  UNK1       0.16000000000000003
     49 H           2.5308   -0.2690   -3.2195 H       1  UNK1       0.16000000000000003
     50 H           4.5711    1.9343   -3.9224 H       1  UNK1       0.15000000000000002
     51 H           3.6855    3.1657   -2.0854 H       1  UNK1          0.14
     52 H           2.1960    0.5636   -1.2864 H       1  UNK1       0.17000000000000004
     53 H           2.1883    3.3885   -0.1031 H       1  UNK1       0.15000000000000002
     54 H           0.8184    2.4615    1.6672 H       1  UNK1          0.14
     55 H           1.6976   -3.4524    3.1619 H       1  UNK1          0.14
     56 H           1.0251   -3.5695    1.5356 H       1  UNK1          0.13
     57 H           0.1863   -1.5107    3.6495 H       1  UNK1          0.13
     58 H           1.3365   -1.2246    2.3457 H       1  UNK1       0.15000000000000002
     59 H           0.3947    0.1010   -0.2490 H       1  UNK1       0.17000000000000004
     60 H          -0.7734   -3.8383    3.9961 H       1  UNK1          0.14
     61 H           0.1331   -5.1962    3.3756 H       1  UNK1       0.15000000000000002
     62 HA1        -2.7617    3.4455   -0.1626 H       2  GLY2       0.19999999999999996
     63 HA2        -2.5648    4.6769   -1.4108 H       2  GLY2       0.19999999999999996
     64 H          -3.5868   -0.4296   -0.6818 H       1  UNK1       0.18999999999999995
     65 H          -1.8375   -0.5867   -0.8235 H       1  UNK1       0.20999999999999996
     66 H          -3.4943    1.9304   -1.4925 H       1  UNK1       0.18000000000000005
     67 H          -1.6512   -1.7415    2.0977 H       1  UNK1          0.12
     68 H          -0.6664    0.6032    2.5782 H       1  UNK1       0.18999999999999995
     69 H          -2.2636    0.0574   -3.3598 H       1  UNK1       0.32999999999999996
     70 H          -3.8526    0.0935   -2.9951 H       1  UNK1       0.32999999999999996
     71 H          -0.8206   -2.8849    0.4731 H       1  UNK1       0.43999999999999995
     72 HXT        -1.6368    6.2418    1.4864 H       2  GLY2       0.44999999999999996
     73 H           0.3933    1.7622   -2.3827 H       1  UNK1       0.43999999999999995
@<TRIPOS>BOND
     1    48     8    1
     2    50     9    1
     3    47     7    1
     4     8     9    1
     5     8    49    1
     6     8     7    1
     7    69    26    1
     8     9    10    2
     9     7     6    2
    10    26    70    1
    11    26    20    1
    12    33    73    1
    13    33    25    1
    14     6    46    1
    15     6     5    1
    16    10    51    1
    17    10    11    1
    18    25    20    1
    19    25    27    2
    20    44     5    1
    21    20    66    1
    22    20    19    1
    23    27    18    1
    24    63    18    1
    25     5    45    1
    26     5     4    1
    27    52    11    1
    28    11    12    2
    29    65    19    1
    30    18    62    1
    31    18    24    1
    32    64    19    1
    33    19    34    1
    34    59    16    1
    35    12    53    1
    36    12    13    1
    37    42     4    1
    38     4    43    1
    39     4     3    1
    40    24    31    2
    41    24    32    1
    42    41     3    1
    43    28    71    1
    44    28    21    1
    45    16    13    2
    46    16    22    1
    47    13    54    1
    48    32    72    1
    49    29    23   ar
    50     3    40    1
    51     3     2    1
    52    34    22    1
    53    56    14    1
    54    22    21    1
    55    22    68    1
    56    39     2    1
    57    21    67    1
    58    21    15    1
    59     2    38    1
    60     2     1    1
    61    23    30   ar
    62    23    17    1
    63    58    15    1
    64    37     1    1
    65    14    15    1
    66    14    17    1
    67    14    55    1
    68    15    57    1
    69     1    35    1
    70     1    36    1
    71    17    61    1
    72    17    60    1
