@<TRIPOS>MOLECULE
YGHRJJRRZDOVPD-UHFFFAOYSA-N	6045517	-271.5791621438555
 16 15 0 0 0
SMALL
MULLIKEN NwChem

@<TRIPOS>ATOM
      1 C           0.6839   -2.1028   -0.1927 C.3     1  LIG1      -0.45999999999999996
      2 C           1.0330    0.8517   -1.0165 C.3     1  LIG1      -0.46999999999999975
      3 C          -0.4641   -1.2181   -0.6936 C.3     1  LIG1      -0.2599999999999998
      4 C          -0.2316    0.5763    1.0522 C.3     1  LIG1       0.040000000000000036
      5 C          -0.2885    0.2952   -0.4312 C.3     1  LIG1      -0.13999999999999968
      6 O          -0.8629    1.7281    1.2501 O.3     1  LIG1      -0.5099999999999998
      7 H           0.4410   -3.1632   -0.3261 H       1  LIG1          0.14
      8 H           0.8729   -1.9194    0.8692 H       1  LIG1       0.15000000000000002
      9 H           1.6130   -1.9066   -0.7398 H       1  LIG1       0.15000000000000002
     10 H           1.1260    0.5582   -2.0685 H       1  LIG1       0.17000000000000004
     11 H           1.0512    1.9450   -0.9592 H       1  LIG1       0.16000000000000003
     12 H           1.9051    0.4692   -0.4762 H       1  LIG1       0.16000000000000003
     13 H          -1.4020   -1.5432   -0.2230 H       1  LIG1          0.14
     14 H          -0.5999   -1.3609   -1.7749 H       1  LIG1          0.14
     15 H          -0.7979    1.9398    2.1982 H       1  LIG1       0.45999999999999996
     16 H          -1.1211    0.8395   -0.9082 H       1  LIG1           0.13
@<TRIPOS>BOND
     1    10     2    1
     2    14     3    1
     3     2    11    1
     4     2    12    1
     5     2     5    1
     6    16     5    1
     7     9     1    1
     8     3     5    1
     9     3    13    1
    10     3     1    1
    11     5     4    1
    12     7     1    1
    13     1     8    1
    14     4     6    1
    15     6    15    1
