@<TRIPOS>MOLECULE
YGPSJZOEDVAXAB-QMMMGPOBSA-N	6045518	-723.3197858440853
 27 27 0 0 0
SMALL
MULLIKEN NwChem

@<TRIPOS>ATOM
      1 C          -2.8546   -2.2935    0.6522 C.ar    1  LIG1      -0.16999999999999993
      2 C          -2.0110   -3.3889    0.4291 C.ar    1  LIG1      -0.15000000000000036
      3 C          -2.2856   -1.0414    0.8031 C.ar    1  LIG1      -0.1900000000000004
      4 C          -0.6416   -3.2061    0.3407 C.ar    1  LIG1      -0.20999999999999996
      5 C           0.9393    1.0714    0.7280 C.3     1  LIG1       -0.3899999999999997
      6 C          -0.8930   -0.8169    0.7272 C.ar    1  LIG1       0.019999999999999574
      7 C          -0.0381   -1.9322    0.4690 C.ar    1  LIG1          0.25
      8 CA          1.2641    1.0798   -0.7978 C.3     1  LIG1       -0.07000000000000028
      9 C          -0.4803    0.5948    1.0166 C.2     1  LIG1       0.41999999999999993
     10 C           1.1627    2.5046   -1.3345 C.2     1  LIG1       0.5800000000000001
     11 N           1.3508   -1.8831    0.4143 N.pl3   1  LIG1      -0.8600000000000003
     12 N           2.5714    0.4705   -1.0439 N.3     1  LIG1        -0.75
     13 O          -1.2807    1.3995    1.4755 O.2     1  LIG1      -0.5299999999999994
     14 O           2.1064    3.1687   -1.7034 O.2     1  LIG1      -0.5099999999999998
     15 OXT        -0.1122    2.9427   -1.3293 O.3     1  LIG1      -0.5700000000000003
     16 H          -3.9308   -2.4230    0.7139 H       1  LIG1       0.15000000000000002
     17 H          -2.4242   -4.3878    0.3133 H       1  LIG1       0.16000000000000003
     18 H          -2.9068   -0.1753    1.0041 H       1  LIG1       0.16000000000000003
     19 H           0.0030   -4.0637    0.1570 H       1  LIG1       0.16000000000000003
     20 H           1.0276    2.0724    1.1567 H       1  LIG1       0.18999999999999995
     21 H           1.6599    0.4196    1.2322 H       1  LIG1       0.19999999999999996
     22 HA          0.5122    0.4791   -1.3244 H       1  LIG1       0.20999999999999996
     23 H           1.8264   -1.1263   -0.0788 H       1  LIG1          0.39
     24 H           1.7688   -2.7743    0.1758 H       1  LIG1          0.36
     25 H1          2.7620    0.4639   -2.0456 H       1  LIG1       0.33999999999999997
     26 H2          3.2927    1.0683   -0.6391 H       1  LIG1       0.33999999999999997
     27 HXT        -0.1022    3.8704   -1.6320 H       1  LIG1       0.44999999999999996
@<TRIPOS>BOND
     1    25    12    1
     2    14    10    2
     3    27    15    1
     4    10    15    1
     5    10     8    1
     6    22     8    1
     7    12     8    1
     8    12    26    1
     9     8     5    1
    10    23    11    1
    11    19     4    1
    12    24    11    1
    13    17     2    1
    14     4     2   ar
    15     4     7   ar
    16    11     7    1
    17     2     1   ar
    18     7     6   ar
    19     1    16    1
    20     1     3   ar
    21     6     3   ar
    22     6     9    1
    23     5     9    1
    24     5    20    1
    25     5    21    1
    26     3    18    1
    27     9    13    2
