@<TRIPOS>MOLECULE
YGSDEFSMJLZEOE-UHFFFAOYSA-M	6045519	-495.49282296478424
 15 15 0 0 0
SMALL
MULLIKEN NwChem

@<TRIPOS>ATOM
      1 C          -2.1198   -1.0201    0.0890 C.2     1  LIG1      -0.20999999999999996
      2 C          -1.3586   -2.2164    0.1148 C.2     1  LIG1      -0.15000000000000036
      3 C          -1.4459    0.1860    0.0287 C.2     1  LIG1      -0.1900000000000004
      4 C           0.0131   -2.1826    0.0828 C.2     1  LIG1        -0.25
      5 C          -0.0333    0.2759   -0.0075 C.3     1  LIG1       -0.07000000000000028
      6 C           0.7924   -0.9443    0.0210 C.2     1  LIG1       0.33999999999999986
      7 C           0.5975    1.5831   -0.0757 C.2     1  LIG1       0.5099999999999998
      8 O           2.0423   -0.9807   -0.0037 O.2     1  LIG1      -0.6999999999999993
      9 O           1.7852    1.8769   -0.1136 O.2     1  LIG1      -0.5700000000000003
     10 O          -0.3218    2.6465   -0.1019 O.3     1  LIG1      -0.6400000000000006
     11 H          -3.2073   -1.0507    0.1153 H       1  LIG1          0.13
     12 H          -1.8745   -3.1785    0.1608 H       1  LIG1          0.14
     13 H          -2.0159    1.1110    0.0077 H       1  LIG1       0.15000000000000002
     14 H           0.6023   -3.0983    0.1025 H       1  LIG1       0.09999999999999998
     15 H           0.2730    3.4151   -0.1478 H       1  LIG1       0.42000000000000004
@<TRIPOS>BOND
     1    15    10    1
     2     9     7    2
     3    10     7    1
     4     7     5    1
     5     5     6    1
     6     5     3    1
     7     8     6    2
     8    13     3    1
     9     6     4    1
    10     3     1    2
    11     4    14    1
    12     4     2    2
    13     1     2    1
    14     1    11    1
    15     2    12    1
