@<TRIPOS>MOLECULE
YHEDRJPUIRMZMP-ZWKOTPCHSA-M	6045520	-1481.3955166363285
 64 63 0 0 0
SMALL
MULLIKEN NwChem

@<TRIPOS>ATOM
      1 C           3.9343    7.5756   -1.4481 C.3     1  LIG1      -0.45999999999999996
      2 C           3.1331    6.7698   -2.4771 C.3     1  LIG1      -0.2599999999999998
      3 C           3.4820    5.2728   -2.5088 C.3     1  LIG1      -0.2599999999999998
      4 C           3.1791    4.5031   -1.2106 C.3     1  LIG1      -0.2699999999999996
      5 C           1.7244    4.6058   -0.7202 C.3     1  LIG1      -0.2699999999999996
      6 C           0.6611    4.1485   -1.7349 C.3     1  LIG1      -0.2699999999999996
      7 C           0.8377    2.7122   -2.2575 C.3     1  LIG1      -0.2699999999999996
      8 C           0.8066    1.6212   -1.1699 C.3     1  LIG1      -0.28000000000000025
      9 C          -0.4434    1.6162   -0.2731 C.3     1  LIG1      -0.3099999999999996
     10 C          -1.7870    1.5674   -1.0223 C.3     1  LIG1      -0.2599999999999998
     11 C          -1.9369    0.4300   -2.0458 C.3     1  LIG1      -0.2699999999999996
     12 C          -1.8599   -0.9979   -1.4797 C.3     1  LIG1      -0.2699999999999996
     13 C          -2.9699   -1.3344   -0.4571 C.3     1  LIG1      -0.2699999999999996
     14 C          -3.6538   -2.6926   -0.7054 C.3     1  LIG1      -0.28000000000000025
     15 C          -2.7676   -3.9578   -0.7066 C.3     1  LIG1      -0.29000000000000004
     16 C          -0.1329   -3.9325    1.1295 C.3     1  LIG1       -0.07000000000000028
     17 C          -1.5902   -3.9593    1.6287 C.3     1  LIG1           0.0
     18 C          -2.5466   -4.6540    0.6490 C.3     1  LIG1       0.1200000000000001
     19 N          -1.7101   -4.6098    2.9428 N.3     1  LIG1      -0.7800000000000002
     20 O          -2.1343   -6.0249    0.4305 O.3     1  LIG1      -0.6899999999999995
     21 O           1.6844   -1.2187    3.1400 O.3     1  LIG1      -0.6699999999999999
     22 O           1.9293   -1.6743    0.5680 O.3     1  LIG1      -0.7599999999999998
     23 O          -0.3694   -1.0476    1.4558 O.2     1  LIG1      -0.6999999999999993
     24 O           0.7121   -3.3110    2.0867 O.3     1  LIG1      -0.5899999999999999
     25 P           0.9392   -1.6633    1.9266 P.3     1  LIG1       1.0999999999999996
     26 H           3.7504    7.2263   -0.4252 H       1  LIG1       0.15000000000000002
     27 H           3.6717    8.6402   -1.4867 H       1  LIG1          0.14
     28 H           5.0135    7.4887   -1.6329 H       1  LIG1          0.14
     29 H           2.0606    6.8867   -2.2784 H       1  LIG1          0.14
     30 H           3.3043    7.1936   -3.4771 H       1  LIG1          0.13
     31 H           2.9361    4.8053   -3.3400 H       1  LIG1          0.14
     32 H           4.5507    5.1619   -2.7483 H       1  LIG1          0.13
     33 H           3.4339    3.4469   -1.3642 H       1  LIG1          0.14
     34 H           3.8428    4.8565   -0.4094 H       1  LIG1          0.13
     35 H           1.6236    4.0121    0.1962 H       1  LIG1          0.14
     36 H           1.5120    5.6439   -0.4288 H       1  LIG1          0.13
     37 H          -0.3260    4.2336   -1.2623 H       1  LIG1          0.14
     38 H           0.6434    4.8397   -2.5904 H       1  LIG1          0.13
     39 H           0.0434    2.5150   -2.9897 H       1  LIG1          0.13
     40 H           1.7815    2.6366   -2.8153 H       1  LIG1          0.13
     41 H           0.9029    0.6454   -1.6677 H       1  LIG1          0.13
     42 H           1.6932    1.7110   -0.5285 H       1  LIG1          0.13
     43 H          -0.3771    0.7650    0.4146 H       1  LIG1       0.18000000000000005
     44 H          -0.4354    2.5171    0.3583 H       1  LIG1          0.12
     45 H          -2.5887    1.4851   -0.2764 H       1  LIG1          0.13
     46 H          -1.9597    2.5194   -1.5466 H       1  LIG1          0.13
     47 H          -2.9078    0.5519   -2.5528 H       1  LIG1          0.12
     48 H          -1.1741    0.5411   -2.8309 H       1  LIG1          0.13
     49 H          -1.9110   -1.6889   -2.3346 H       1  LIG1          0.12
     50 H          -0.8905   -1.1618   -0.9969 H       1  LIG1       0.16000000000000003
     51 H          -2.5398   -1.2728    0.5492 H       1  LIG1       0.16000000000000003
     52 H          -3.7633   -0.5679   -0.5079 H       1  LIG1          0.12
     53 H          -4.4647   -2.8302    0.0253 H       1  LIG1          0.13
     54 H          -4.1463   -2.6359   -1.6882 H       1  LIG1          0.13
     55 H          -3.2452   -4.7162   -1.3407 H       1  LIG1          0.14
     56 H          -1.7990   -3.7354   -1.1738 H       1  LIG1       0.15000000000000002
     57 H           0.2344   -4.9646    1.0195 H       1  LIG1          0.14
     58 H          -0.0478   -3.4367    0.1540 H       1  LIG1       0.15000000000000002
     59 H          -1.8924   -2.9172    1.7490 H       1  LIG1       0.16000000000000003
     60 H          -3.5152   -4.7588    1.1545 H       1  LIG1          0.14
     61 H          -1.4793   -5.5963    2.8102 H       1  LIG1       0.31000000000000005
     62 H          -0.9623   -4.2253    3.5240 H       1  LIG1       0.31999999999999995
     63 H          -1.3008   -5.9830   -0.0679 H       1  LIG1       0.42000000000000004
     64 H           1.4968   -1.0785   -0.0674 H       1  LIG1       0.44999999999999996
@<TRIPOS>BOND
     1    30     2    1
     2    31     3    1
     3    39     7    1
     4    48    11    1
     5    40     7    1
     6    32     3    1
     7    38     6    1
     8    47    11    1
     9     3     2    1
    10     3     4    1
    11     2    29    1
    12     2     1    1
    13    49    12    1
    14     7     6    1
    15     7     8    1
    16    11    12    1
    17    11    10    1
    18     6    37    1
    19     6     5    1
    20    54    14    1
    21    41     8    1
    22    28     1    1
    23    46    10    1
    24    27     1    1
    25    12    50    1
    26    12    13    1
    27     1    26    1
    28    33     4    1
    29    55    15    1
    30     4     5    1
    31     4    34    1
    32    56    15    1
    33     8    42    1
    34     8     9    1
    35    10    45    1
    36    10     9    1
    37     5    36    1
    38     5    35    1
    39    15    14    1
    40    15    18    1
    41    14    13    1
    42    14    53    1
    43    52    13    1
    44    13    51    1
    45     9    44    1
    46     9    43    1
    47    63    20    1
    48    64    22    1
    49    58    16    1
    50    20    18    1
    51    22    25    1
    52    18    60    1
    53    18    17    1
    54    57    16    1
    55    16    17    1
    56    16    24    1
    57    23    25    2
    58    17    59    1
    59    17    19    1
    60    25    24    1
    61    25    21    1
    62    61    19    1
    63    19    62    1
