@<TRIPOS>MOLECULE
YHHSONZFOIEMCP-UHFFFAOYSA-M	11083903	-895.3992804087713
 24 23 0 0 0
SMALL
MULLIKEN NwChem

@<TRIPOS>ATOM
      1 C          -1.5908    0.5278   -1.0419 C.3     1  LIG1      -0.3899999999999997
      2 C          -1.3817    1.0110    1.3762 C.3     1  LIG1      -0.3899999999999997
      3 C          -3.4048   -0.0563    0.4906 C.3     1  LIG1      -0.3200000000000003
      4 C          -1.3577   -1.3753    0.6010 C.3     1  LIG1      -0.15000000000000036
      5 C           0.1710   -1.4924    0.7418 C.3     1  LIG1       -0.040000000000000036
      6 N          -1.9186    0.0315    0.3571 N.4     1  LIG1       -0.33999999999999986
      7 O           3.2442    0.0286   -0.4780 O.3     1  LIG1      -0.7200000000000006
      8 O           1.1173    1.3431   -1.2620 O.2     1  LIG1      -0.7599999999999998
      9 O           1.4841    0.8973    1.2514 O.3     1  LIG1      -0.7699999999999996
     10 O           0.8341   -1.0439   -0.3691 O.3     1  LIG1      -0.6600000000000001
     11 P           1.8364    0.4898   -0.2014 P.3     1  LIG1           1.0
     12 H          -2.2068    1.4189   -1.2044 H       1  LIG1       0.18000000000000005
     13 H          -1.8808   -0.2580   -1.7437 H       1  LIG1       0.18000000000000005
     14 H          -0.4980    0.7889   -1.1374 H       1  LIG1          0.28
     15 H          -1.6890    0.6570    2.3660 H       1  LIG1       0.18000000000000005
     16 H          -0.2576    1.0682    1.3020 H       1  LIG1          0.27
     17 H          -1.8444    1.9797    1.1675 H       1  LIG1       0.18000000000000005
     18 H          -3.7914   -0.7654   -0.2461 H       1  LIG1       0.19999999999999996
     19 H          -3.6646   -0.3900    1.4987 H       1  LIG1       0.20999999999999996
     20 H          -3.8345    0.9314    0.3091 H       1  LIG1       0.20999999999999996
     21 H          -1.7047   -1.9652   -0.2539 H       1  LIG1       0.18999999999999995
     22 H          -1.8543   -1.7390    1.5111 H       1  LIG1       0.18999999999999995
     23 H           0.3154   -2.5845    0.9148 H       1  LIG1          0.12
     24 H           0.4982   -0.9718    1.6540 H       1  LIG1       0.15000000000000002
@<TRIPOS>BOND
     1    13     1    1
     2     8    11    2
     3    12     1    1
     4    14     1    1
     5     1     6    1
     6     7    11    1
     7    10    11    1
     8    10     5    1
     9    21     4    1
    10    18     3    1
    11    11     9    1
    12    20     3    1
    13     6     3    1
    14     6     4    1
    15     6     2    1
    16     3    19    1
    17     4     5    1
    18     4    22    1
    19     5    23    1
    20     5    24    1
    21    17     2    1
    22    16     2    1
    23     2    15    1
