@<TRIPOS>MOLECULE
YHVFECVVGNXFKO-UHFFFAOYSA-O	6119258	-492.09807878536975
 23 22 0 0 0
SMALL
MULLIKEN NwChem

@<TRIPOS>ATOM
      1 C           0.3225    0.9636    0.6279 C.3     1  LIG1      -0.3200000000000003
      2 C          -0.2677    2.1745   -0.1355 C.3     1  LIG1      -0.3600000000000003
      3 C          -0.3607   -0.3809    0.3264 C.3     1  LIG1       -0.13999999999999968
      4 C           0.2514    2.3773   -1.5310 C.3     1  LIG1       0.6600000000000001
      5 C          -0.2545   -2.6665    1.3643 C.cat   1  LIG1       0.7199999999999998
      6 N           0.4660    3.5726   -2.0152 N.3     1  LIG1      -0.6699999999999999
      7 N           0.4790   -3.3730    2.2804 N.pl3   1  LIG1         -0.5
      8 N          -1.3082   -3.1434    0.6989 N.pl3   1  LIG1      -0.7199999999999998
      9 N           0.2032   -1.4197    1.1914 N.pl3   1  LIG1      -0.5199999999999996
     10 O           0.4453    1.2888   -2.2251 O.3     1  LIG1      -0.5299999999999994
     11 H           0.2015    1.1817    1.6942 H       1  LIG1       0.20999999999999996
     12 H           1.3990    0.8872    0.4360 H       1  LIG1       0.19999999999999996
     13 H          -1.3611    2.0862   -0.2233 H       1  LIG1          0.24
     14 H          -0.0840    3.0883    0.4372 H       1  LIG1          0.24
     15 H          -1.4390   -0.3110    0.5267 H       1  LIG1       0.21999999999999997
     16 H          -0.2239   -0.6757   -0.7217 H       1  LIG1       0.22999999999999998
     17 H           0.7743    3.7465   -2.9712 H       1  LIG1       0.43000000000000005
     18 H           0.3148    4.4012   -1.4440 H       1  LIG1       0.43999999999999995
     19 H           0.0980   -4.3107    2.4594 H       1  LIG1          0.39
     20 H          -1.8037   -2.6160   -0.0109 H       1  LIG1       0.43000000000000005
     21 H          -1.6463   -4.0836    0.8730 H       1  LIG1       0.43000000000000005
     22 H           1.0325   -1.2179    1.7467 H       1  LIG1       0.42000000000000004
     23 H           0.7701    1.4143   -3.1408 H       1  LIG1            0.5
@<TRIPOS>BOND
     1    23    10    1
     2    17     6    1
     3    10     4    1
     4     6     4    1
     5     6    18    1
     6     4     2    1
     7    16     3    1
     8    13     2    1
     9     2    14    1
    10     2     1    1
    11    20     8    1
    12     3    15    1
    13     3     1    1
    14     3     9    1
    15    12     1    1
    16     1    11    1
    17     8    21    1
    18     8     5    1
    19     9     5    1
    20     9    22    1
    21     5     7    2
    22     7    19    1
