@<TRIPOS>MOLECULE
YIEMFVNCENFBSD-XQRVVYSFSA-K	11083902	-1424.6595800219345
 22 21 0 0 0
SMALL
MULLIKEN NwChem

@<TRIPOS>ATOM
      1 C          -3.6491    0.3969    0.6402 C.3     1  LIG1      -0.6100000000000003
      2 C          -1.2589   -0.8302   -1.5812 C.3     1  LIG1       -0.3200000000000003
      3 C          -2.6971   -0.4297   -1.9626 C.3     1  LIG1       -0.40000000000000036
      4 C           0.7458   -0.0880    0.4239 C.2     1  LIG1       -0.009999999999999787
      5 C          -1.2626   -1.3023   -0.1128 C.2     1  LIG1       0.34999999999999964
      6 C          -0.5215   -0.5502    0.8991 C.2     1  LIG1       0.2599999999999998
      7 O          -2.1384   -2.1993    0.1336 O.2     1  LIG1      -0.6699999999999999
      8 O          -0.9612   -0.4712    2.1201 O.2     1  LIG1      -0.8300000000000001
      9 O           3.4713    2.3263    0.8821 O.3     1  LIG1      -0.7599999999999998
     10 O           3.1518    0.6206   -1.0619 O.2     1  LIG1      -0.7599999999999998
     11 O           4.3013   -0.1248    1.1531 O.3     1  LIG1      -0.7599999999999998
     12 O           1.7005    0.3837    1.1816 O.2     1  LIG1      -0.6199999999999992
     13 P           3.3828    0.8660    0.4340 P.3     1  LIG1       0.9000000000000004
     14 S          -3.4451    1.0321   -1.0847 S.3     1  LIG1      -0.03999999999999915
     15 H          -4.4069    1.0397    1.1119 H       1  LIG1       0.17000000000000004
     16 H          -2.7134    0.3805    1.2266 H       1  LIG1       0.18999999999999995
     17 H          -3.9954   -0.6401    0.5941 H       1  LIG1       0.18000000000000005
     18 H          -1.0191   -1.6694   -2.2677 H       1  LIG1          0.14
     19 H          -0.5711   -0.0054   -1.7769 H       1  LIG1          0.14
     20 H          -2.7844   -0.1629   -3.0276 H       1  LIG1       0.18000000000000005
     21 H          -3.3412   -1.2908   -1.7506 H       1  LIG1       0.17000000000000004
     22 H           1.0092   -0.1714   -0.6324 H       1  LIG1       0.10999999999999999
@<TRIPOS>BOND
     1    20     3    1
     2    18     2    1
     3     3    21    1
     4     3     2    1
     5     3    14    1
     6    19     2    1
     7     2     5    1
     8    14     1    1
     9    10    13    2
    10    22     4    1
    11     5     7    2
    12     5     6    1
    13     4     6    2
    14     4    12    1
    15    13     9    1
    16    13    11    1
    17    13    12    1
    18    17     1    1
    19     1    15    1
    20     1    16    1
    21     6     8    1
