@<TRIPOS>MOLECULE
YKBGVTZYEHREMT-KVQBGUIXSA-N	6045526	-963.3338282828623
 32 34 0 0 0
SMALL
MULLIKEN NwChem

@<TRIPOS>ATOM
      1 C2*         0.9992   -2.6650    0.5787 C.3     1    G1       -0.33000000000000007
      2 C5*         2.7912   -0.0806   -0.1559 C.3     1    G1       -0.08000000000000007
      3 C8         -1.9360   -1.6178    0.0323 C.2     1    G1       0.20000000000000018
      4 C3*         2.4739   -2.4153    0.9300 C.3     1    G1       0.11000000000000032
      5 C4*         2.5165   -0.8893    1.1085 C.3     1    G1       0.08999999999999986
      6 C1*         0.2555   -1.5433    1.3341 C.3     1    G1       0.2999999999999998
      7 C5         -2.0858    0.3646   -0.7205 C.2     1    G1       0.13999999999999968
      8 C4         -0.9270    0.3316    0.0460 C.3     1    G1       0.6500000000000004
      9 C6         -2.3726    1.6123   -1.3522 C.2     1    G1       0.5300000000000002
     10 C2         -0.4408    2.6294   -0.4692 C.cat   1    G1       0.6200000000000001
     11 N2          0.3956    3.5892   -0.3072 N.pl3   1    G1      -0.7599999999999998
     12 N7         -2.7054   -0.8701   -0.7118 N.2     1    G1      -0.5599999999999996
     13 N3         -0.1198    1.4108    0.1905 N.pl3   1    G1      -0.7400000000000002
     14 N1         -1.5991    2.6612   -1.2361 N.2     1    G1      -0.6200000000000001
     15 N9         -0.8183   -0.9375    0.5314 N.pl3   1    G1        -0.54
     16 O5*         1.8801   -0.4190   -1.1891 O.3     1    G1      -0.6600000000000001
     17 O3*         2.8879   -3.0971    2.1074 O.3     1    G1      -0.6699999999999999
     18 O6         -3.4772    1.7062   -2.1044 O.2     1    G1      -0.6199999999999992
     19 O4*         1.2210   -0.5652    1.6829 O.3     1    G1      -0.5399999999999991
     20 H2*1        0.8441   -2.5371   -0.4916 H       1    G1       0.18999999999999995
     21 H2*2        0.6854   -3.6652    0.8847 H       1    G1       0.18000000000000005
     22 H5*1        2.7417    0.9874    0.0864 H       1    G1       0.17000000000000004
     23 H5*2        3.8198   -0.2977   -0.4801 H       1    G1       0.16000000000000003
     24 H8         -2.1008   -2.6583    0.2692 H       1    G1       0.20999999999999996
     25 H3*         3.1482   -2.7555    0.1413 H       1    G1       0.17000000000000004
     26 H4*         3.2653   -0.6218    1.8619 H       1    G1       0.18000000000000005
     27 H1*        -0.2100   -1.8981    2.2596 H       1    G1       0.19999999999999996
     28 H2          0.0521    4.4067   -0.8101 H       1    G1       0.30000000000000004
     29 H3          0.6336    1.4135    0.8638 H       1    G1          0.39
     30 H5*         1.4226    0.3829   -1.4719 H       1    G1       0.44999999999999996
     31 H3*         2.3978   -2.7200    2.8551 H       1    G1       0.43000000000000005
     32 H6         -3.4886    2.6208   -2.4437 H       1    G1       0.44999999999999996
@<TRIPOS>BOND
     1    32    18    1
     2    18     9    1
     3    30    16    1
     4     9    14    1
     5     9     7    2
     6    14    10    2
     7    16     2    1
     8    28    11    1
     9     7    12    1
    10     7     8    1
    11    12     3    2
    12    20     1    1
    13    23     2    1
    14    10    11    1
    15    10    13    1
    16     2    22    1
    17     2     5    1
    18     3    24    1
    19     3    15    1
    20     8    13    1
    21     8    15    1
    22    25     4    1
    23    13    29    1
    24    15     6    1
    25     1    21    1
    26     1     4    1
    27     1     6    1
    28     4     5    1
    29     4    17    1
    30     5    19    1
    31     5    26    1
    32     6    19    1
    33     6    27    1
    34    17    31    1
