@<TRIPOS>MOLECULE
YMAWOPBAYDPSLA-UHFFFAOYSA-N	6045528	-492.3179412374224
 17 16 0 0 0
SMALL
MULLIKEN NwChem

@<TRIPOS>ATOM
      1 CA          0.1885   -1.2455   -1.5333 C.3     1  GLY1       -0.20000000000000018
      2 CA         -0.8321    0.5476    0.8932 C.3     2  GLY2         -0.25
      3 C          -0.0832   -1.5362   -0.0566 C.2     1  GLY1       0.5099999999999998
      4 C           0.3961    1.4372    0.7472 C.2     2  GLY2       0.5899999999999999
      5 N          -0.3884   -0.0759   -2.1691 N.3     1  GLY1      -0.7800000000000002
      6 N          -0.5151   -0.8604    0.9328 N.2     2  GLY2      -0.5099999999999998
      7 O           0.2313   -2.8387    0.1794 O.2     1  GLY1      -0.6099999999999994
      8 O           1.3673    1.1861    0.0655 O.2     2  GLY2         -0.5
      9 OXT         0.2625    2.5896    1.4404 O.3     2  GLY2      -0.5700000000000003
     10 HA1        -0.1303   -2.1415   -2.0792 H       1  GLY1       0.18000000000000005
     11 HA2         1.2777   -1.1978   -1.6417 H       1  GLY1       0.18999999999999995
     12 HA1        -1.5095    0.8331    0.0746 H       2  GLY2       0.19999999999999996
     13 HA2        -1.3393    0.8174    1.8239 H       2  GLY2       0.18999999999999995
     14 H1         -1.3959   -0.0358   -2.0459 H       1  GLY1       0.33999999999999997
     15 H2          0.0258    0.7725   -1.7980 H       1  GLY1       0.33999999999999997
     16 H           0.0886   -2.9706    1.1359 H       1  GLY1       0.43000000000000005
     17 HXT         1.0620    3.1193    1.2577 H       2  GLY2       0.44999999999999996
@<TRIPOS>BOND
     1     5    14    1
     2     5    15    1
     3     5     1    1
     4    10     1    1
     5    11     1    1
     6     1     3    1
     7     3     7    1
     8     3     6    2
     9     8     4    2
    10    12     2    1
    11     7    16    1
    12     4     2    1
    13     4     9    1
    14     2     6    1
    15     2    13    1
    16    17     9    1
