@<TRIPOS>MOLECULE
YNDYKPRNFWPPFU-GOSISDBHSA-L	11083898	-1614.1405228226242
 64 63 0 0 0
SMALL
MULLIKEN NwChem

@<TRIPOS>ATOM
      1 C          -8.2677   -3.2239    0.5732 C.3     1  LIG1      -0.45999999999999996
      2 C          -8.8963   -2.0779   -0.2288 C.3     1  LIG1        -0.25
      3 C          -8.4923   -0.6779    0.2617 C.3     1  LIG1        -0.25
      4 C          -6.9981   -0.3593    0.1190 C.3     1  LIG1      -0.2599999999999998
      5 C          -6.6495    1.0799    0.5226 C.3     1  LIG1      -0.2599999999999998
      6 C          -5.1458    1.3974    0.4827 C.3     1  LIG1      -0.2599999999999998
      7 C          -4.5281    1.3588   -0.9231 C.3     1  LIG1      -0.2599999999999998
      8 C          -3.0387    1.7578   -0.9991 C.3     1  LIG1      -0.2699999999999996
      9 C          -2.0169    0.6648   -0.6331 C.3     1  LIG1      -0.28000000000000025
     10 C          -1.9207    0.2142    0.8348 C.3     1  LIG1      -0.2999999999999998
     11 C          -1.7596    1.3366    1.8760 C.3     1  LIG1      -0.2699999999999996
     12 C          -0.5600    2.2812    1.6639 C.3     1  LIG1      -0.2699999999999996
     13 C           0.8133    1.6064    1.5138 C.3     1  LIG1      -0.2999999999999998
     14 C           1.2591    0.7859    2.7385 C.3     1  LIG1      -0.2699999999999996
     15 C           2.2607   -0.3483    2.4412 C.3     1  LIG1       -0.41000000000000014
     16 C           4.6629    1.2077    0.1476 C.3     1  LIG1       -0.08000000000000007
     17 C           3.8950   -0.6620   -1.4271 C.3     1  LIG1       -0.04999999999999982
     18 C           4.0836    0.8500   -1.2188 C.3     1  LIG1       0.1200000000000001
     19 C           3.6381   -0.0005    1.9538 C.2     1  LIG1       0.6500000000000004
     20 O           5.0329    1.3760   -2.1855 O.3     1  LIG1      -0.6999999999999993
     21 O           4.6546   -0.6107    2.2383 O.2     1  LIG1      -0.5600000000000005
     22 O           1.2480   -2.1194   -2.2939 O.2     1  LIG1      -0.7599999999999998
     23 O           1.0642    0.3292   -1.4407 O.3     1  LIG1      -0.7799999999999994
     24 O           0.5951   -1.6251    0.2008 O.3     1  LIG1      -0.7599999999999998
     25 O           3.6357    1.0897    1.1386 O.3     1  LIG1      -0.47000000000000064
     26 O           2.9688   -1.2163   -0.5546 O.3     1  LIG1      -0.6400000000000006
     27 P           1.2755   -1.1667   -1.1066 P.3     1  LIG1       1.0600000000000005
     28 H          -8.5143   -3.1363    1.6395 H       1  LIG1          0.14
     29 H          -8.6283   -4.1993    0.2243 H       1  LIG1          0.14
     30 H          -7.1766   -3.2241    0.4862 H       1  LIG1       0.15000000000000002
     31 H          -8.6174   -2.1807   -1.2874 H       1  LIG1          0.13
     32 H          -9.9920   -2.1703   -0.1896 H       1  LIG1          0.13
     33 H          -8.7897   -0.5656    1.3164 H       1  LIG1          0.13
     34 H          -9.0695    0.0739   -0.2976 H       1  LIG1          0.13
     35 H          -6.4037   -1.0497    0.7323 H       1  LIG1          0.13
     36 H          -6.6917   -0.5379   -0.9203 H       1  LIG1          0.14
     37 H          -7.0319    1.2594    1.5400 H       1  LIG1          0.13
     38 H          -7.1929    1.7783   -0.1348 H       1  LIG1          0.13
     39 H          -4.6130    0.7024    1.1402 H       1  LIG1          0.14
     40 H          -4.9851    2.3987    0.9075 H       1  LIG1          0.13
     41 H          -4.6353    0.3513   -1.3498 H       1  LIG1          0.13
     42 H          -5.1253    2.0282   -1.5669 H       1  LIG1          0.12
     43 H          -2.8327    2.0646   -2.0353 H       1  LIG1          0.12
     44 H          -2.8799    2.6589   -0.3867 H       1  LIG1          0.13
     45 H          -1.0116    0.9591   -0.9639 H       1  LIG1       0.16000000000000003
     46 H          -2.2333   -0.2266   -1.2398 H       1  LIG1       0.09999999999999998
     47 H          -2.8074   -0.3815    1.1144 H       1  LIG1       0.10999999999999999
     48 H          -1.0590   -0.4710    0.8680 H       1  LIG1       0.17000000000000004
     49 H          -1.6803    0.8703    2.8700 H       1  LIG1          0.12
     50 H          -2.6734    1.9539    1.9193 H       1  LIG1          0.12
     51 H          -0.7382    2.8730    0.7541 H       1  LIG1          0.12
     52 H          -0.5448    3.0063    2.4992 H       1  LIG1       0.10999999999999999
     53 H           0.8162    0.9760    0.6162 H       1  LIG1       0.19999999999999996
     54 H           1.5581    2.3850    1.3138 H       1  LIG1       0.10999999999999999
     55 H           1.6405    1.4543    3.5314 H       1  LIG1          0.12
     56 H           0.3830    0.2827    3.1692 H       1  LIG1          0.14
     57 H           1.8065   -0.9698    1.6334 H       1  LIG1       0.22999999999999998
     58 H           2.3960   -0.9847    3.3251 H       1  LIG1          0.14
     59 H           4.9868    2.2566    0.1457 H       1  LIG1       0.16000000000000003
     60 H           5.5154    0.5721    0.4105 H       1  LIG1       0.16000000000000003
     61 H           4.8830   -1.1457   -1.2872 H       1  LIG1          0.12
     62 H           3.5999   -0.8270   -2.4835 H       1  LIG1       0.10999999999999999
     63 H           3.0949    1.3116   -1.3277 H       1  LIG1          0.14
     64 H           4.7028    1.0503   -3.0377 H       1  LIG1       0.43000000000000005
@<TRIPOS>BOND
     1    64    20    1
     2    62    17    1
     3    22    27    2
     4    20    18    1
     5    43     8    1
     6    42     7    1
     7    23    27    1
     8    17    61    1
     9    17    18    1
    10    17    26    1
    11    41     7    1
    12    63    18    1
    13    31     2    1
    14    46     9    1
    15    18    16    1
    16    27    26    1
    17    27    24    1
    18     8     7    1
    19     8     9    1
    20     8    44    1
    21    45     9    1
    22     7     6    1
    23    36     4    1
    24     9    10    1
    25    34     3    1
    26     2    32    1
    27     2     3    1
    28     2     1    1
    29    38     5    1
    30     4     3    1
    31     4     5    1
    32     4    35    1
    33    59    16    1
    34    16    60    1
    35    16    25    1
    36    29     1    1
    37     3    33    1
    38     6     5    1
    39     6    40    1
    40     6    39    1
    41    30     1    1
    42     5    37    1
    43     1    28    1
    44    53    13    1
    45    51    12    1
    46    10    48    1
    47    10    47    1
    48    10    11    1
    49    25    19    1
    50    54    13    1
    51    13    12    1
    52    13    14    1
    53    57    15    1
    54    12    11    1
    55    12    52    1
    56    11    50    1
    57    11    49    1
    58    19    21    2
    59    19    15    1
    60    15    14    1
    61    15    58    1
    62    14    56    1
    63    14    55    1
