@<TRIPOS>MOLECULE
YNOXCRMFGMSKIJ-NFNCENRGSA-K	6045531	-797.8586783910918
 21 20 0 0 0
SMALL
MULLIKEN NwChem

@<TRIPOS>ATOM
      1 C           1.5859   -1.6671   -0.8411 C.3     1  LIG1      -0.45999999999999996
      2 C          -0.9727    0.9805    0.5428 C.3     1  LIG1       -0.3700000000000001
      3 C           1.0895   -0.5627    0.1081 C.3     1  LIG1       -0.17999999999999972
      4 C          -0.6396    2.3611   -0.1340 C.2     1  LIG1       0.4900000000000002
      5 C           1.6438   -0.8167    1.5800 C.2     1  LIG1       0.5300000000000002
      6 C          -1.0293   -0.6281   -1.4691 C.2     1  LIG1       0.5300000000000002
      7 C          -0.4618   -0.3940    0.0060 C.3     1  LIG1       0.2400000000000002
      8 O          -1.6285    3.1555   -0.2462 O.co2   1  LIG1      -0.6999999999999993
      9 O           0.5634    2.6265   -0.4087 O.co2   1  LIG1      -0.6699999999999999
     10 O           2.4823   -1.7652    1.7153 O.co2   1  LIG1      -0.6999999999999993
     11 O           1.2760   -0.0324    2.4970 O.co2   1  LIG1      -0.6799999999999997
     12 O          -1.9969   -1.4743   -1.5275 O.co2   1  LIG1      -0.6899999999999995
     13 O          -0.5440   -0.0061   -2.4383 O.co2   1  LIG1      -0.6699999999999999
     14 O          -1.0853   -1.4302    0.8119 O.3     1  LIG1      -0.7599999999999998
     15 H           2.6537   -1.8556   -0.6792 H       1  LIG1          0.12
     16 H           1.3937   -1.3935   -1.8849 H       1  LIG1          0.12
     17 H           1.0544   -2.6040   -0.6197 H       1  LIG1          0.12
     18 H          -2.0676    0.8972    0.5972 H       1  LIG1       0.09999999999999998
     19 H          -0.5829    1.0273    1.5680 H       1  LIG1          0.13
     20 H           1.4955    0.4054   -0.2158 H       1  LIG1       0.10999999999999999
     21 H          -1.7190   -1.7713    0.1292 H       1  LIG1           0.39
@<TRIPOS>BOND
     1    13     6   ar
     2    16     1    1
     3    12     6   ar
     4     6     7    1
     5     1    15    1
     6     1    17    1
     7     1     3    1
     8     9     4   ar
     9     8     4   ar
    10    20     3    1
    11     4     2    1
    12     7     3    1
    13     7     2    1
    14     7    14    1
    15     3     5    1
    16    21    14    1
    17     2    18    1
    18     2    19    1
    19     5    10   ar
    20     5    11   ar
