@<TRIPOS>MOLECULE
YNYAYWLBAHXHLL-QMMMGPOBSA-O	6045532	-631.4688815842366
 27 27 0 0 0
SMALL
MULLIKEN NwChem

@<TRIPOS>ATOM
      1 C           0.2503    0.1072    3.3815 C.3     1  LIG1       -0.2400000000000002
      2 C          -1.0710    0.4989   -1.4905 C.ar    1  LIG1      -0.20999999999999996
      3 C          -2.1742    0.8628   -0.7127 C.ar    1  LIG1      -0.21999999999999975
      4 C           0.1933    0.0722    0.5355 C.ar    1  LIG1      -0.2699999999999996
      5 C           1.4699   -1.8612   -1.6320 C.3     1  LIG1      -0.17999999999999972
      6 C           0.1094    0.0986   -0.8718 C.ar    1  LIG1      0.09999999999999964
      7 C          -2.1048    0.8398    0.6777 C.ar    1  LIG1       0.2999999999999998
      8 C           1.2931   -0.3398   -1.6935 C.3     1  LIG1       0.07000000000000028
      9 C          -0.8968    0.4437    1.3172 C.ar    1  LIG1       0.34999999999999964
     10 N           2.8303   -2.1985   -2.2387 N.4     1  LIG1       -0.7199999999999998
     11 O          -3.1275    1.1842    1.4923 O.3     1  LIG1      -0.6699999999999999
     12 O           2.5592    0.1410   -1.2150 O.3     1  LIG1      -0.6799999999999997
     13 O          -0.9254    0.4696    2.6672 O.3     1  LIG1      -0.5299999999999994
     14 H          -0.0029    0.2080    4.4371 H       1  LIG1       0.18999999999999995
     15 H           1.0866    0.7769    3.1409 H       1  LIG1       0.17000000000000004
     16 H           0.5398   -0.9319    3.1739 H       1  LIG1       0.17000000000000004
     17 H          -1.1448    0.5361   -2.5742 H       1  LIG1       0.16000000000000003
     18 H          -3.0969    1.1793   -1.1929 H       1  LIG1       0.17000000000000004
     19 H           1.1276   -0.2121    1.0065 H       1  LIG1       0.17000000000000004
     20 H           1.5044   -2.1990   -0.5950 H       1  LIG1       0.22999999999999998
     21 H           0.6966   -2.4010   -2.1792 H       1  LIG1       0.22999999999999998
     22 H           1.1469   -0.0375   -2.7428 H       1  LIG1       0.17000000000000004
     23 H           3.4867   -1.4905   -1.8637 H       1  LIG1      0.43999999999999995
     24 H           3.1574   -3.1415   -2.0037 H       1  LIG1      0.44999999999999996
     25 H           2.8268   -2.1065   -3.2609 H       1  LIG1      0.43999999999999995
     26 H          -3.8973    1.4461    0.9623 H       1  LIG1       0.45999999999999996
     27 H           2.4961    1.0955   -1.0481 H       1  LIG1       0.43999999999999995
@<TRIPOS>BOND
     1    25    10    1
     2    22     8    1
     3    17     2    1
     4    10    24    1
     5    10    23    1
     6    10     5    1
     7    21     5    1
     8     8     5    1
     9     8    12    1
    10     8     6    1
    11     5    20    1
    12     2     6   ar
    13     2     3   ar
    14    12    27    1
    15    18     3    1
    16     6     4   ar
    17     3     7   ar
    18     4    19    1
    19     4     9   ar
    20     7     9   ar
    21     7    11    1
    22    26    11    1
    23     9    13    1
    24    13     1    1
    25    15     1    1
    26    16     1    1
    27     1    14    1
