@<TRIPOS>MOLECULE
YOAHKNVSNCMZGQ-XPWFQUROSA-J	11083897	-4119.244802256173
 77 82 0 0 0
SMALL
MULLIKEN NwChem

@<TRIPOS>ATOM
      1 C          -5.2831    0.6507   -0.1750 C.3     1  LIG1       -0.09999999999999964
      2 C           5.4467    0.4487   -0.3145 C.3     1  LIG1       -0.07000000000000028
      3 C         -12.2755   -2.1288    1.5556 C.ar    1  LIG1       0.15000000000000036
      4 C          13.1421   -0.2474    0.4239 C.ar    1  LIG1       0.15000000000000036
      5 C          -9.0208    0.7234    1.2136 C.ar    1  LIG1       0.20999999999999996
      6 C           9.0862    1.0642    1.2477 C.ar    1  LIG1       0.20999999999999996
      7 C          -6.2283   -0.3207   -0.9006 C.3     1  LIG1       0.09999999999999964
      8 C           6.4719   -0.6314   -0.6752 C.3     1  LIG1       0.09999999999999964
      9 C         -10.9144    0.1208    1.9484 C.ar    1  LIG1       0.1900000000000004
     10 C          11.1779    1.1218    1.5794 C.ar    1  LIG1       0.1900000000000004
     11 C          -7.2363    0.3290   -1.8903 C.3     1  LIG1       0.1299999999999999
     12 C           6.7925   -1.6458    0.4587 C.3     1  LIG1       0.13999999999999968
     13 C          -8.4856   -0.6274   -1.7304 C.3     1  LIG1       0.08999999999999986
     14 C           8.3167   -1.9603    0.1571 C.3     1  LIG1       0.08999999999999986
     15 C         -12.1415   -0.0822    2.5927 C.ar    1  LIG1       0.4400000000000004
     16 C          12.5035    1.3041    1.9950 C.ar    1  LIG1       0.4400000000000004
     17 C         -10.4678   -0.9211    1.1110 C.ar    1  LIG1       0.5300000000000002
     18 C          10.9693    0.1842    0.5485 C.ar    1  LIG1          0.54
     19 C          -8.3349   -1.2040   -0.3149 C.3     1  LIG1          0.25
     20 C           8.8239   -0.7068   -0.5726 C.3     1  LIG1          0.25
     21 N         -12.6891    0.8859    3.4184 N.pl3   1  LIG1      -0.7699999999999996
     22 N          12.8277    2.2176    2.9833 N.pl3   1  LIG1      -0.7800000000000002
     23 N         -12.8230   -1.2230    2.3949 N.ar    1  LIG1        -0.54
     24 N          13.4913    0.6031    1.4136 N.ar    1  LIG1        -0.54
     25 N         -11.1291   -2.0700    0.8808 N.ar    1  LIG1        -0.54
     26 N          11.9354   -0.5205   -0.0685 N.ar    1  LIG1      -0.5499999999999998
     27 N          -9.9935    1.1466    2.0036 N.ar    1  LIG1      -0.5800000000000001
     28 N           9.9850    1.6648    2.0099 N.ar    1  LIG1      -0.5800000000000001
     29 N          -9.2462   -0.5088    0.6473 N.ar    1  LIG1      -0.5099999999999998
     30 N           9.6137    0.1688    0.3479 N.ar    1  LIG1      -0.5099999999999998
     31 O          -6.8429    0.3051   -3.1978 O.3     1  LIG1      -0.7799999999999994
     32 O           6.1000   -2.8150    0.3910 O.3     1  LIG1      -0.7799999999999994
     33 O          -8.3414   -1.6165   -2.7120 O.3     1  LIG1      -0.7200000000000006
     34 O           8.3145   -3.0819   -0.6809 O.3     1  LIG1      -0.7200000000000006
     35 O          -3.6861    2.8957   -2.9107 O.2     1  LIG1      -0.6199999999999992
     36 O          -4.2696    0.3467   -3.0447 O.3     1  LIG1      -0.7300000000000004
     37 O           3.5910   -1.0425   -1.9151 O.2     1  LIG1      -0.6500000000000004
     38 O           3.4728   -2.4580    0.2763 O.3     1  LIG1      -0.7100000000000009
     39 O          -1.6977    2.8130    0.2389 O.2     1  LIG1      -0.6699999999999999
     40 O          -2.3448    0.3570    0.9593 O.3     1  LIG1      -0.6500000000000004
     41 O           1.1646    1.3087    1.6825 O.3     1  LIG1      -0.6500000000000004
     42 O           2.1290    1.8926   -0.7098 O.2     1  LIG1      -0.6600000000000001
     43 O          -4.8982    1.7501   -1.0024 O.3     1  LIG1      -0.5800000000000001
     44 O           4.3494   -0.1097    0.3819 O.3     1  LIG1      -0.5899999999999999
     45 O          -7.0255   -1.0063    0.1261 O.3     1  LIG1      -0.5500000000000007
     46 O           7.7325    0.0389   -1.0256 O.3     1  LIG1      -0.5500000000000007
     47 O          -2.4416    1.0144   -1.5286 O.3     1  LIG1      -0.6500000000000004
     48 O           1.8446   -0.5919    0.0336 O.3     1  LIG1      -0.6300000000000008
     49 O          -0.2081    0.7779   -0.4724 O.3     1  LIG1      -0.6300000000000008
     50 P          -3.7557    1.6004   -2.1824 P.3     1  LIG1       1.1600000000000001
     51 P           3.2681   -1.0445   -0.4571 P.3     1  LIG1       1.1899999999999995
     52 P          -1.6876    1.3342    0.0261 P.3     1  LIG1       1.1400000000000006
     53 P           1.2722    1.0786    0.2105 P.3     1  LIG1       1.1400000000000006
     54 H          -5.8392    1.0978    0.6616 H       1  LIG1       0.17000000000000004
     55 H          -4.3991    0.1555    0.2429 H       1  LIG1       0.19999999999999996
     56 H           5.9126    1.1665    0.3770 H       1  LIG1       0.17000000000000004
     57 H           5.1096    0.9930   -1.2026 H       1  LIG1       0.16000000000000003
     58 H         -12.8589   -3.0397    1.4199 H       1  LIG1       0.16000000000000003
     59 H          13.9722   -0.7905   -0.0280 H       1  LIG1       0.16000000000000003
     60 H          -8.1007    1.2528    1.0081 H       1  LIG1       0.20999999999999996
     61 H           8.0187    1.2306    1.2813 H       1  LIG1       0.20999999999999996
     62 H          -5.6661   -1.0832   -1.4466 H       1  LIG1       0.15000000000000002
     63 H           6.1269   -1.1960   -1.5455 H       1  LIG1       0.15000000000000002
     64 H          -7.4965    1.3411   -1.5121 H       1  LIG1       0.10999999999999999
     65 H           6.7166   -1.1165    1.4353 H       1  LIG1       0.08999999999999997
     66 H          -9.4518   -0.0975   -1.8237 H       1  LIG1          0.13
     67 H           8.9137   -2.1330    1.0720 H       1  LIG1          0.13
     68 H          -8.6267   -2.2598   -0.2721 H       1  LIG1       0.17000000000000004
     69 H           9.5115   -0.9634   -1.3873 H       1  LIG1       0.17000000000000004
     70 H         -13.3225    0.5137    4.1147 H       1  LIG1          0.37
     71 H         -12.0057    1.5430    3.7764 H       1  LIG1          0.37
     72 H          13.6880    2.0028    3.4714 H       1  LIG1          0.36
     73 H          12.0478    2.4606    3.5827 H       1  LIG1          0.37
     74 H          -5.2914    0.3894   -3.2060 H       1  LIG1       0.44999999999999996
     75 H           4.4786   -2.6392    0.3224 H       1  LIG1       0.44999999999999996
     76 H          -7.6520   -1.1209   -3.2879 H       1  LIG1           0.4
     77 H           7.3467   -3.3758   -0.4904 H       1  LIG1            0.4
@<TRIPOS>BOND
     1    76    33    1
     2    74    36    1
     3    31    11    1
     4    36    50    1
     5    35    50    2
     6    33    13    1
     7    50    47    1
     8    50    43    1
     9    37    51    2
    10    11    13    1
    11    11    64    1
    12    11     7    1
    13    66    13    1
    14    13    19    1
    15    63     8    1
    16    47    52    1
    17    62     7    1
    18    69    20    1
    19    57     2    1
    20    46     8    1
    21    46    20    1
    22    43     1    1
    23     7     1    1
    24     7    45    1
    25    42    53    2
    26    34    77    1
    27    34    14    1
    28     8     2    1
    29     8    12    1
    30    20    14    1
    31    20    30    1
    32    49    52    1
    33    49    53    1
    34    51    48    1
    35    51    38    1
    36    51    44    1
    37    19    68    1
    38    19    45    1
    39    19    29    1
    40     2    56    1
    41     2    44    1
    42     1    55    1
    43     1    54    1
    44    26     4   ar
    45    26    18   ar
    46    59     4    1
    47    52    39    2
    48    52    40    1
    49    48    53    1
    50    14    12    1
    51    14    67    1
    52    53    41    1
    53    38    75    1
    54    30    18   ar
    55    30     6   ar
    56    32    12    1
    57     4    24   ar
    58    12    65    1
    59    18    10   ar
    60    29    17   ar
    61    29     5   ar
    62    25    17   ar
    63    25     3   ar
    64    60     5    1
    65    17     9   ar
    66     5    27   ar
    67     6    61    1
    68     6    28   ar
    69    24    16   ar
    70    58     3    1
    71     3    23   ar
    72    10    16   ar
    73    10    28   ar
    74     9    27   ar
    75     9    15   ar
    76    16    22    1
    77    23    15   ar
    78    15    21    1
    79    22    72    1
    80    22    73    1
    81    21    71    1
    82    21    70    1
