@<TRIPOS>MOLECULE
YOBCOUZBIFVTFN-UHFFFAOYSA-L	6045534	-1163.9139887561032
 30 29 0 0 0
SMALL
MULLIKEN NwChem

@<TRIPOS>ATOM
      1 C          -0.8419    0.4040    4.4546 C.3     1  LIG1      -0.5899999999999999
      2 C          -1.3852    0.4242    0.9691 C.3     1  LIG1      -0.2699999999999996
      3 C           0.1511    0.5241    0.9370 C.3     1  LIG1      -0.29000000000000004
      4 C          -1.9447   -0.9785    1.2536 C.3     1  LIG1      -0.2599999999999998
      5 C           0.8512   -0.4498   -0.0297 C.3     1  LIG1        -0.25
      6 C          -1.4774   -1.6421    2.5532 C.3     1  LIG1      -0.41999999999999993
      7 C           0.2973   -0.4502   -1.4647 C.3     1  LIG1         -0.25
      8 C           0.2400    0.9521   -2.0694 C.2     1  LIG1       0.3799999999999999
      9 C           1.0671   -1.5194   -2.3897 C.2     1  LIG1       0.5099999999999998
     10 C           1.5163    1.8343   -2.1390 C.2     1  LIG1       0.46999999999999975
     11 O          -0.8475    1.4227   -2.4218 O.2     1  LIG1      -0.5600000000000005
     12 O           0.4465   -1.8377   -3.4313 O.co2   1  LIG1      -0.6699999999999999
     13 O           2.1591   -1.9486   -1.9416 O.co2   1  LIG1      -0.6600000000000001
     14 O           1.8576    2.2943   -1.0075 O.co2   1  LIG1      -0.6300000000000008
     15 O           2.0213    2.0411   -3.2622 O.co2   1  LIG1      -0.6500000000000004
     16 S          -2.0916   -0.8954    4.1351 S.3     1  LIG1      -0.010000000000001563
     17 H          -1.0572    0.8198    5.4448 H       1  LIG1       0.18999999999999995
     18 H          -0.8853    1.1981    3.7075 H       1  LIG1       0.19999999999999996
     19 H           0.1656   -0.0231    4.4581 H       1  LIG1       0.19999999999999996
     20 H          -1.7617    0.7448   -0.0094 H       1  LIG1          0.13
     21 H          -1.7978    1.1317    1.7066 H       1  LIG1          0.13
     22 H           0.4367    1.5332    0.6194 H       1  LIG1          0.14
     23 H           0.5607    0.3828    1.9527 H       1  LIG1          0.13
     24 H          -1.6400   -1.6436    0.4347 H       1  LIG1       0.15000000000000002
     25 H          -3.0442   -0.9537    1.2479 H       1  LIG1          0.14
     26 H           1.9105   -0.1898   -0.0818 H       1  LIG1          0.12
     27 H           0.8078   -1.4834    0.3479 H       1  LIG1          0.13
     28 H          -0.3845   -1.6764    2.6055 H       1  LIG1       0.18999999999999995
     29 H          -1.8350   -2.6780    2.5997 H       1  LIG1       0.18000000000000005
     30 H          -0.7481   -0.7880   -1.4751 H       1  LIG1           0.13
@<TRIPOS>BOND
     1    12     9   ar
     2    15    10   ar
     3    11     8    2
     4     9    13   ar
     5     9     7    1
     6    10     8    1
     7    10    14   ar
     8     8     7    1
     9    30     7    1
    10     7     5    1
    11    26     5    1
    12     5    27    1
    13     5     3    1
    14    20     2    1
    15    24     4    1
    16    22     3    1
    17     3     2    1
    18     3    23    1
    19     2     4    1
    20     2    21    1
    21    25     4    1
    22     4     6    1
    23     6    29    1
    24     6    28    1
    25     6    16    1
    26    18     1    1
    27    16     1    1
    28     1    19    1
    29     1    17    1
