@<TRIPOS>MOLECULE
YOQAQNKGFOLRGT-FNBSVUNXSA-N	6045535	-1398.2998925486925
 83 87 0 0 0
SMALL
MULLIKEN NwChem

@<TRIPOS>ATOM
      1 C           2.0721    5.6286   -0.6269 C.3     1  LIG1      -0.46999999999999975
      2 C           0.1871    6.6141   -1.9471 C.3     1  LIG1      -0.46999999999999975
      3 C          -2.6936    3.1115   -0.4297 C.3     1  LIG1      -0.5199999999999996
      4 C          -0.6095   -3.1916   -1.8728 C.3     1  LIG1      -0.5599999999999996
      5 C           2.3889   -4.9325    1.3401 C.3     1  LIG1      -0.46999999999999975
      6 C           1.0496    0.8959    1.5551 C.3     1  LIG1      -0.4900000000000002
      7 C          -2.0172   -0.6913   -0.4463 C.3     1  LIG1      -0.4900000000000002
      8 C           0.3290    1.1563   -1.6569 C.2     1  LIG1      -0.23000000000000043
      9 C           0.5761   -0.3078   -1.9010 C.3     1  LIG1      -0.33000000000000007
     10 C          -0.7585   -3.0852    1.2393 C.3     1  LIG1      -0.2999999999999998
     11 C           2.1310   -4.5885   -1.7822 C.3     1  LIG1      -0.3099999999999996
     12 C           1.8882   -3.0718   -1.5822 C.3     1  LIG1      -0.2999999999999998
     13 C          -0.8045   -1.5815    1.5460 C.3     1  LIG1      -0.2999999999999998
     14 C          -1.4861    2.9326    1.7831 C.3     1  LIG1      -0.2999999999999998
     15 C          -1.3925    1.3980    1.6957 C.3     1  LIG1      -0.3099999999999996
     16 C           0.1939    4.1385   -1.4327 C.3     1  LIG1      -0.2999999999999998
     17 C          -0.1846    5.8243    0.4513 C.3     1  LIG1      -0.2999999999999998
     18 C           0.0814   -5.9110    1.2728 C.3     1  LIG1       -0.04999999999999982
     19 C          -0.0616    1.6987   -0.4982 C.2     1  LIG1      0.16000000000000014
     20 C          -0.1393    3.1975   -0.2708 C.3     1  LIG1      -0.1900000000000004
     21 C           0.5413   -3.4259    0.4893 C.3     1  LIG1      -0.1299999999999999
     22 C           0.4882   -1.1807   -0.6328 C.3     1  LIG1      -0.1299999999999999
     23 C           1.3526   -5.5386   -0.8402 C.3     1  LIG1       0.13999999999999968
     24 C          -1.5618    5.1713    0.5561 C.3     1  LIG1       0.11000000000000032
     25 C           0.5563    5.5550   -0.8934 C.3     1  LIG1      0.1299999999999999
     26 C          -1.4900    3.6034    0.3949 C.3     1  LIG1       0.09999999999999964
     27 C           0.5325   -2.7321   -0.9194 C.3     1  LIG1      0.1200000000000001
     28 C           1.0560   -4.9302    0.5571 C.3     1  LIG1       0.03000000000000025
     29 C          -0.2846    0.8242    0.7515 C.3     1  LIG1      0.04999999999999982
     30 C          -0.6594   -0.6673    0.3025 C.3     1  LIG1      0.08000000000000007
     31 O           0.1596   -5.9136    2.6960 O.3     1  LIG1      -0.6799999999999997
     32 O           0.1877   -6.1007   -1.4628 O.3     1  LIG1      -0.6999999999999993
     33 O          -2.3770    5.8224   -0.4261 O.3     1  LIG1      -0.6699999999999999
     34 H           2.6385    5.5432   -1.5623 H       1  LIG1          0.14
     35 H           2.4037    4.8228    0.0406 H       1  LIG1       0.15000000000000002
     36 H           2.3414    6.5824   -0.1565 H       1  LIG1          0.14
     37 H           0.6841    6.3949   -2.9011 H       1  LIG1          0.13
     38 H          -0.8923    6.6372   -2.1112 H       1  LIG1       0.15000000000000002
     39 H           0.5068    7.6137   -1.6261 H       1  LIG1          0.14
     40 H          -3.6381    3.3318    0.0881 H       1  LIG1       0.15000000000000002
     41 H          -2.7250    3.5882   -1.4120 H       1  LIG1       0.15000000000000002
     42 H          -2.6587    2.0339   -0.5910 H       1  LIG1       0.16000000000000003
     43 H          -1.0074   -2.3609   -2.4574 H       1  LIG1       0.17000000000000004
     44 H          -0.2583   -3.9223   -2.6045 H       1  LIG1       0.16000000000000003
     45 H          -1.4655   -3.6252   -1.3442 H       1  LIG1       0.17000000000000004
     46 H           2.2524   -4.5154    2.3419 H       1  LIG1       0.15000000000000002
     47 H           2.7732   -5.9510    1.4643 H       1  LIG1          0.14
     48 H           3.1496   -4.3357    0.8243 H       1  LIG1       0.16000000000000003
     49 H           1.9175    0.6354    0.9447 H       1  LIG1       0.15000000000000002
     50 H           1.2112    1.9154    1.9179 H       1  LIG1       0.16000000000000003
     51 H           1.0395    0.2490    2.4368 H       1  LIG1       0.15000000000000002
     52 H          -1.9968   -0.1114   -1.3711 H       1  LIG1       0.15000000000000002
     53 H          -2.3056   -1.7116   -0.6988 H       1  LIG1       0.15000000000000002
     54 H          -2.8258   -0.2955    0.1724 H       1  LIG1       0.15000000000000002
     55 H           0.5104    1.8004   -2.5142 H       1  LIG1          0.12
     56 H          -0.1203   -0.6555   -2.6773 H       1  LIG1       0.15000000000000002
     57 H           1.5719   -0.4165   -2.3509 H       1  LIG1       0.15000000000000002
     58 H          -0.8251   -3.6153    2.1957 H       1  LIG1          0.12
     59 H          -1.6441   -3.4023    0.6771 H       1  LIG1       0.15000000000000002
     60 H           3.2044   -4.7810   -1.6693 H       1  LIG1       0.15000000000000002
     61 H           1.8797   -4.8966   -2.8025 H       1  LIG1       0.15000000000000002
     62 H           1.9749   -2.5709   -2.5527 H       1  LIG1       0.15000000000000002
     63 H           2.6849   -2.6537   -0.9520 H       1  LIG1          0.14
     64 H           0.0039   -1.3821    2.2571 H       1  LIG1          0.14
     65 H          -1.7376   -1.3383    2.0686 H       1  LIG1          0.13
     66 H          -2.3999    3.1939    2.3358 H       1  LIG1          0.13
     67 H          -0.6498    3.3387    2.3695 H       1  LIG1          0.14
     68 H          -2.3740    1.0336    1.3905 H       1  LIG1       0.15000000000000002
     69 H          -1.2306    0.9940    2.7022 H       1  LIG1          0.14
     70 H          -0.6577    4.2015   -2.1197 H       1  LIG1          0.14
     71 H           1.0412    3.7616   -2.0161 H       1  LIG1          0.13
     72 H           0.4214    5.4561    1.2890 H       1  LIG1       0.15000000000000002
     73 H          -0.2951    6.9042    0.6025 H       1  LIG1          0.13
     74 H          -0.9508   -5.7422    0.9356 H       1  LIG1          0.14
     75 H           0.3398   -6.9320    0.9811 H       1  LIG1          0.14
     76 H           0.6296    3.3937    0.4912 H       1  LIG1       0.15000000000000002
     77 H           1.3173   -2.8647    1.0276 H       1  LIG1          0.14
     78 H           1.4178   -1.0036   -0.0808 H       1  LIG1          0.13
     79 H           1.9756   -6.4249   -0.6767 H       1  LIG1          0.14
     80 H          -1.9768    5.3874    1.5550 H       1  LIG1          0.12
     81 H          -0.0846   -5.0353    3.0218 H       1  LIG1       0.43000000000000005
     82 H          -0.5057   -5.4286   -1.4857 H       1  LIG1       0.43000000000000005
     83 H          -3.2885    5.5155   -0.3142 H       1  LIG1       0.42000000000000004
@<TRIPOS>BOND
     1    37     2    1
     2    61    11    1
     3    56     9    1
     4    44     4    1
     5    62    12    1
     6    55     8    1
     7    43     4    1
     8    57     9    1
     9    70    16    1
    10    38     2    1
    11    71    16    1
    12     2    39    1
    13     2    25    1
    14     9     8    1
    15     9    22    1
    16     4    45    1
    17     4    27    1
    18    11    60    1
    19    11    12    1
    20    11    23    1
    21     8    19    2
    22    12    63    1
    23    12    27    1
    24    34     1    1
    25    82    32    1
    26    32    23    1
    27    16    25    1
    28    16    20    1
    29    41     3    1
    30    52     7    1
    31    27    22    1
    32    27    21    1
    33    25     1    1
    34    25    17    1
    35    23    79    1
    36    23    28    1
    37    53     7    1
    38    22    78    1
    39    22    30    1
    40     1    36    1
    41     1    35    1
    42    42     3    1
    43    19    20    1
    44    19    29    1
    45     7    54    1
    46     7    30    1
    47     3    40    1
    48     3    26    1
    49    33    83    1
    50    33    24    1
    51    20    26    1
    52    20    76    1
    53    30    29    1
    54    30    13    1
    55    26    24    1
    56    26    14    1
    57    17    24    1
    58    17    73    1
    59    17    72    1
    60    21    28    1
    61    21    77    1
    62    21    10    1
    63    24    80    1
    64    28    18    1
    65    28     5    1
    66    59    10    1
    67    29     6    1
    68    29    15    1
    69    48     5    1
    70    74    18    1
    71    49     6    1
    72    75    18    1
    73    10    13    1
    74    10    58    1
    75    18    31    1
    76     5    47    1
    77     5    46    1
    78    68    15    1
    79    13    65    1
    80    13    64    1
    81     6    50    1
    82     6    51    1
    83    15    14    1
    84    15    69    1
    85    14    66    1
    86    14    67    1
    87    31    81    1
