@<TRIPOS>MOLECULE
YPZRHBJKEMOYQH-UYBVJOGSSA-L	11164695	-3352.546171160465
 86 91 0 0 0
SMALL
MULLIKEN NwChem

@<TRIPOS>ATOM
      1 C         -10.0425    0.4067   -2.5996 C.3     1  LIG1      -0.5499999999999998
      2 C          -7.6430   -1.0345   -3.5529 C.3     1  LIG1      -0.5499999999999998
      3 C          -8.6968    1.1035   -0.5760 C.ar    1  LIG1      -0.3200000000000003
      4 C          -6.4562   -0.2405   -1.4659 C.ar    1  LIG1      -0.3099999999999996
      5 C          -3.8915    0.1770   -0.0342 C.3     1  LIG1       -0.20000000000000018
      6 C          -1.3615   -3.3750    1.6685 C.3     1  LIG1       -0.08000000000000007
      7 C           2.9398    1.3184    1.6100 C.3     1  LIG1       -0.11000000000000032
      8 C           9.5970    0.4762   -2.2805 C.ar    1  LIG1       0.15000000000000036
      9 C           6.2195   -0.6100    0.2461 C.ar    1  LIG1       0.20999999999999996
     10 C          -8.7604    0.4140   -1.7992 C.ar    1  LIG1      0.1200000000000001
     11 C          -7.6255   -0.2665   -2.2515 C.ar    1  LIG1      0.11000000000000032
     12 C          -7.5335    1.1601    0.1948 C.ar    1  LIG1       0.3099999999999996
     13 C          -6.3723    0.4676   -0.2671 C.ar    1  LIG1       0.3099999999999996
     14 C          -3.4837   -1.3121    0.1700 C.3     1  LIG1       0.13999999999999968
     15 C          -1.3691   -2.8207    0.2386 C.3     1  LIG1       0.1200000000000001
     16 C           3.7559    2.0235    0.5407 C.3     1  LIG1       0.1299999999999999
     17 C           8.0301   -1.0616   -0.7737 C.ar    1  LIG1       0.1900000000000004
     18 C          -6.4196    1.5611    2.2862 C.ar    1  LIG1       0.16999999999999993
     19 C          -1.9518   -1.4064    0.0624 C.3     1  LIG1       0.03000000000000025
     20 C           3.6469    1.4494   -0.8826 C.3     1  LIG1       0.07000000000000028
     21 C           4.9263    1.9974   -1.5140 C.3     1  LIG1       0.08999999999999986
     22 C           9.1807   -1.6021   -1.3749 C.ar    1  LIG1       0.46999999999999975
     23 C           7.7851    0.2948   -1.0259 C.ar    1  LIG1          0.54
     24 C          -5.3082    0.8978    1.8578 C.ar    1  LIG1       0.4900000000000002
     25 C          -6.5880    1.8553    3.6904 C.ar    1  LIG1       0.4800000000000004
     26 C           5.9153    1.8650   -0.3420 C.3     1  LIG1          0.25
     27 C          -4.5027    0.8860    3.9823 C.ar    1  LIG1       0.6100000000000003
     28 N           9.5480   -2.9055   -1.1795 N.pl3   1  LIG1      -0.7800000000000002
     29 N           9.9577   -0.8132   -2.1388 N.ar    1  LIG1      -0.5499999999999998
     30 N           8.5409    1.1160   -1.7717 N.ar    1  LIG1      -0.5499999999999998
     31 N           7.0423   -1.6116    0.0214 N.ar    1  LIG1      -0.5800000000000001
     32 N          -7.4420    1.9055    1.3615 N.ar    1  LIG1      -0.7800000000000002
     33 N          -4.3062    0.5341    2.6906 N.ar    1  LIG1      -0.7000000000000002
     34 N          -5.5348    1.5072    4.5234 N.ar    1  LIG1      -0.6299999999999999
     35 N          -5.1927    0.5551    0.4874 N.ar    1  LIG1      -0.6100000000000003
     36 N           6.6150    0.5741   -0.3571 N.ar    1  LIG1      -0.5099999999999998
     37 O          -3.9407   -1.8402    1.3936 O.3     1  LIG1      -0.6999999999999993
     38 O          -2.0494   -3.7586   -0.5996 O.3     1  LIG1      -0.6899999999999995
     39 O          -1.5841   -0.9512   -1.2545 O.3     1  LIG1      -0.6999999999999993
     40 O           2.5053    1.8735   -1.5815 O.3     1  LIG1      -0.7100000000000009
     41 O           4.7724    3.3727   -1.8270 O.3     1  LIG1      -0.6799999999999997
     42 O          -7.6408    2.4031    4.0983 O.2     1  LIG1      -0.6999999999999993
     43 O          -3.4995    0.5403    4.8273 O.3     1  LIG1      -0.6799999999999997
     44 O          -1.4360   -1.1001    3.6029 O.2     1  LIG1      -0.6300000000000008
     45 O           1.0848   -1.7586    4.2199 O.3     1  LIG1      -0.6300000000000008
     46 O           2.0040   -2.3357    0.9089 O.3     1  LIG1      -0.6999999999999993
     47 O           1.2095   -0.2429   -0.4337 O.2     1  LIG1      -0.6600000000000001
     48 O          -0.1460   -2.9927    2.3708 O.3     1  LIG1      -0.6300000000000008
     49 O           2.9674   -0.1139    1.4559 O.3     1  LIG1      -0.5399999999999991
     50 O           5.1642    1.9455    0.8524 O.3     1  LIG1      -0.5399999999999991
     51 O           0.4804   -0.5483    1.9898 O.3     1  LIG1      -0.6699999999999999
     52 P          -0.0693   -1.6040    3.3004 P.3     1  LIG1       1.2200000000000006
     53 P           1.5954   -0.7980    0.9114 P.3     1  LIG1       1.3200000000000003
     54 H         -10.4328   -0.6116   -2.7462 H       1  LIG1       0.16000000000000003
     55 H          -9.9060    0.8311   -3.6058 H       1  LIG1       0.16000000000000003
     56 H         -10.8252    0.9894   -2.1004 H       1  LIG1       0.16000000000000003
     57 H          -8.4047   -1.8289   -3.5571 H       1  LIG1       0.16000000000000003
     58 H          -7.8672   -0.3886   -4.4159 H       1  LIG1       0.16000000000000003
     59 H          -6.6744   -1.5098   -3.7435 H       1  LIG1       0.16000000000000003
     60 H          -9.5762    1.6361   -0.2153 H       1  LIG1          0.14
     61 H          -5.5910   -0.8021   -1.8038 H       1  LIG1       0.15000000000000002
     62 H          -3.8450    0.4258   -1.0984 H       1  LIG1       0.17000000000000004
     63 H          -3.1577    0.8032    0.4818 H       1  LIG1       0.17000000000000004
     64 H          -2.2345   -3.0444    2.2276 H       1  LIG1       0.19999999999999996
     65 H          -1.3367   -4.4675    1.6145 H       1  LIG1       0.18000000000000005
     66 H           3.3499    1.5382    2.5993 H       1  LIG1       0.19999999999999996
     67 H           1.9104    1.6900    1.5785 H       1  LIG1       0.19999999999999996
     68 H          10.2594    1.0753   -2.9033 H       1  LIG1       0.17000000000000004
     69 H           5.3154   -0.6565    0.8392 H       1  LIG1       0.21999999999999997
     70 H          -3.9285   -1.9296   -0.6222 H       1  LIG1          0.14
     71 H          -0.3184   -2.7643   -0.0896 H       1  LIG1          0.13
     72 H           3.4576    3.0805    0.5150 H       1  LIG1       0.17000000000000004
     73 H          -1.5314   -0.7483    0.8286 H       1  LIG1       0.16000000000000003
     74 H           3.7045    0.3573   -0.8379 H       1  LIG1       0.18000000000000005
     75 H           5.2619    1.4243   -2.3890 H       1  LIG1       0.17000000000000004
     76 H           6.6789    2.6473   -0.3840 H       1  LIG1       0.18999999999999995
     77 H          10.2015   -3.2877   -1.8486 H       1  LIG1          0.37
     78 H           8.8295   -3.5270   -0.8331 H       1  LIG1          0.38
     79 H          -8.2971    2.1588    1.8482 H       1  LIG1       0.32999999999999996
     80 H          -3.8826   -1.1051    2.0618 H       1  LIG1       0.43000000000000005
     81 H          -2.1697   -3.2795   -1.4377 H       1  LIG1       0.43000000000000005
     82 H          -0.6473   -0.6822   -1.1867 H       1  LIG1       0.43999999999999995
     83 H           1.8037    1.2317   -1.3207 H       1  LIG1       0.45999999999999996
     84 H           3.8430    3.4637   -2.1061 H       1  LIG1       0.43999999999999995
     85 H          -2.8191    0.0566    4.3104 H       1  LIG1       0.44999999999999996
     86 H           1.3431   -2.8491    1.4543 H       1  LIG1           0.49
@<TRIPOS>BOND
     1    58     2    1
     2    59     2    1
     3    55     1    1
     4    57     2    1
     5     2    11    1
     6    68     8    1
     7    54     1    1
     8     1    56    1
     9     1    10    1
    10    75    21    1
    11     8    29   ar
    12     8    30   ar
    13    11    10   ar
    14    11     4   ar
    15    29    22   ar
    16    84    41    1
    17    77    28    1
    18    41    21    1
    19    61     4    1
    20    10     3   ar
    21    30    23   ar
    22    40    83    1
    23    40    20    1
    24    21    20    1
    25    21    26    1
    26     4    13   ar
    27    81    38    1
    28    22    28    1
    29    22    17   ar
    30    39    82    1
    31    39    19    1
    32    28    78    1
    33    62     5    1
    34    23    17   ar
    35    23    36   ar
    36    20    74    1
    37    20    16    1
    38    17    31   ar
    39    70    14    1
    40    38    15    1
    41     3    60    1
    42     3    12   ar
    43    47    53    2
    44    76    26    1
    45    36    26    1
    46    36     9   ar
    47    26    50    1
    48    13    12   ar
    49    13    35   ar
    50    71    15    1
    51     5    14    1
    52     5    63    1
    53     5    35    1
    54    31     9   ar
    55    19    14    1
    56    19    15    1
    57    19    73    1
    58    14    37    1
    59    12    32   ar
    60    15     6    1
    61     9    69    1
    62    35    24   ar
    63    72    16    1
    64    16    50    1
    65    16     7    1
    66    46    53    1
    67    46    86    1
    68    53    49    1
    69    53    51    1
    70    32    79    1
    71    32    18   ar
    72    37    80    1
    73    49     7    1
    74    67     7    1
    75     7    66    1
    76    65     6    1
    77     6    64    1
    78     6    48    1
    79    24    18   ar
    80    24    33   ar
    81    51    52    1
    82    18    25   ar
    83    48    52    1
    84    33    27   ar
    85    52    44    2
    86    52    45    1
    87    25    42    2
    88    25    34   ar
    89    27    34   ar
    90    27    43    1
    91    85    43    1
