@<TRIPOS>MOLECULE
YPZRWBKMTBYPTK-BJDJZHNGSA-L	11083895	-2807.6364448335194
 70 69 0 0 0
SMALL
MULLIKEN NwChem

@<TRIPOS>ATOM
      1 C           5.7106    3.4896   -0.0917 C.3     1  UNK1            -0.25
      2 C          -5.1059   -0.1789    1.0158 C.3     1  UNK1      -0.2999999999999998
      3 C           4.8523    3.3544    1.1924 C.3     1  UNK1       -0.3799999999999999
      4 C          -4.2667    1.0065    0.4810 C.3     1  UNK1       -0.3700000000000001
      5 CA          2.8558   -1.4526    1.6669 C.3     2  GLY2       -0.2599999999999998
      6 CA         -1.7419   -3.9041   -1.4352 C.3     2  GLY2       -0.21999999999999975
      7 C           2.0533    1.6051    0.8564 C.3     1  UNK1       -0.4800000000000004
      8 C          -1.3748   -0.1727    1.4885 C.3     1  UNK1       -0.4800000000000004
      9 C           5.9636    2.1975   -0.8930 C.3     1  UNK1       -0.05999999999999961
     10 C          -6.0466   -0.8683    0.0086 C.3     1  UNK1       -0.08000000000000007
     11 C           2.7280    1.5018    2.2576 C.3     1  UNK1           0.0
     12 C          -1.4403   -0.4701   -0.0146 C.3     1  UNK1       -0.009999999999999787
     13 C           5.1095    1.9968    1.9096 C.2     1  UNK1       0.4900000000000002
     14 C          -3.4513    0.7298   -0.7841 C.2     1  UNK1       0.45999999999999996
     15 C           2.0669   -1.7816    0.4039 C.2     2  GLY2       0.6200000000000001
     16 C          -3.0048   -3.6460   -2.2746 C.2     2  GLY2       0.5899999999999999
     17 C           2.0733    0.3429    3.0169 C.2     1  UNK1          0.54
     18 C          -1.8827   -1.9382   -0.2362 C.2     1  UNK1       0.5300000000000002
     19 C           4.6703    1.4726   -1.2626 C.2     1  UNK1       0.5999999999999996
     20 C          -7.1020    0.1255   -0.5822 C.2     1  UNK1       0.5899999999999999
     21 N           6.7033    2.5491   -2.1308 N.3     1  UNK1      -0.7699999999999996
     22 N          -5.2191   -1.5198   -1.0801 N.4     1  UNK1       -0.8200000000000003
     23 N           2.0413   -0.9108    2.7582 N.2     2  GLY2      -0.5199999999999996
     24 N          -1.1013   -2.6651   -1.0196 N.am    2  GLY2      -0.6200000000000001
     25 N           4.1376    1.1616    2.2631 N.am    1  UNK1      -0.5999999999999996
     26 N          -2.2960    0.2310   -0.9555 N.2     1  UNK1      -0.4800000000000004
     27 O           6.3303    1.7414    2.0743 O.2     1  UNK1      -0.6899999999999995
     28 O          -4.1131    1.0588   -1.9355 O.2     1  UNK1      -0.6699999999999999
     29 O           2.3762   -1.3885   -0.7216 O.2     2  GLY2      -0.5399999999999991
     30 OXT         1.0155   -2.5564    0.6241 O.3     2  GLY2      -0.5999999999999996
     31 OXT        -3.9028   -4.4487   -2.4316 O.2     2  GLY2      -0.5299999999999994
     32 O          -3.0679   -2.4349   -2.8734 O.3     2  GLY2      -0.6099999999999994
     33 O           1.4462    0.7498    4.1540 O.2     1  UNK1      -0.6199999999999992
     34 O          -3.0211   -2.2997    0.2094 O.2     1  UNK1      -0.6400000000000006
     35 O           3.7672    2.0106   -1.8857 O.2     1  UNK1      -0.5500000000000007
     36 O           4.6715    0.1867   -0.8954 O.3     1  UNK1      -0.6099999999999994
     37 O          -8.1904    0.1476    0.0087 O.co2   1  UNK1      -0.6300000000000008
     38 O          -6.6994    0.8265   -1.5646 O.co2   1  UNK1      -0.6600000000000001
     39 S           0.3675    2.3654    0.6552 S.3     1  UNK1      -0.05000000000000071
     40 S          -0.9758    1.5534    2.0229 S.3     1  UNK1      -0.019999999999999574
     41 H           5.2467    4.2263   -0.7635 H       1  UNK1          0.14
     42 H           6.7060    3.8622    0.1672 H       1  UNK1          0.14
     43 H          -5.7497    0.1945    1.8208 H       1  UNK1       0.18000000000000005
     44 H          -4.4359   -0.9332    1.4345 H       1  UNK1       0.18999999999999995
     45 H           5.1544    4.1545    1.8823 H       1  UNK1       0.15000000000000002
     46 H           3.7996    3.5379    0.9605 H       1  UNK1          0.14
     47 H          -4.9357    1.8449    0.2608 H       1  UNK1       0.18000000000000005
     48 H          -3.5873    1.3388    1.2678 H       1  UNK1       0.19999999999999996
     49 HA1         3.2595   -2.4136    2.0212 H       2  GLY2       0.18999999999999995
     50 HA2         3.6961   -0.7979    1.4153 H       2  GLY2       0.18999999999999995
     51 HA1        -1.0430   -4.4756   -2.0604 H       2  GLY2       0.18999999999999995
     52 HA2        -2.0635   -4.5481   -0.6070 H       2  GLY2       0.17000000000000004
     53 H           2.6204    2.2757    0.2114 H       1  UNK1       0.20999999999999996
     54 H           2.0361    0.6466    0.3492 H       1  UNK1       0.18999999999999995
     55 H          -2.3227   -0.3961    1.9873 H       1  UNK1       0.20999999999999996
     56 H          -0.6065   -0.8318    1.9068 H       1  UNK1       0.19999999999999996
     57 H           6.5795    1.5386   -0.2806 H       1  UNK1       0.16000000000000003
     58 H          -6.5734   -1.6781    0.5178 H       1  UNK1       0.18999999999999995
     59 H           2.4837    2.4282    2.8052 H       1  UNK1          0.14
     60 H          -0.4265   -0.3638   -0.4089 H       1  UNK1       0.16000000000000003
     61 H           6.9533    1.6820   -2.6099 H       1  UNK1       0.32999999999999996
     62 H           6.0325    3.0095   -2.7505 H       1  UNK1       0.31999999999999995
     63 H          -4.9717   -0.8256   -1.7998 H       1  UNK1          0.4
     64 H          -5.7057   -2.2838   -1.5524 H       1  UNK1      0.43000000000000005
     65 HXT         0.4136   -2.6198   -0.1973 H       2  GLY2       0.43999999999999995
     66 H          -2.3129   -1.8870   -2.5529 H       2  GLY2       0.43999999999999995
     67 H           1.0727   -0.0733    4.5233 H       1  UNK1       0.43000000000000005
     68 H          -4.3167   -1.9045   -0.6662 H       1  UNK1      0.45999999999999996
     69 H           3.7828   -0.2363   -1.0226 H       1  UNK1       0.44999999999999996
     70 H          -5.0964    1.1789   -1.7585 H       1  UNK1       0.44999999999999996
@<TRIPOS>BOND
     1    32    66    1
     2    32    16    1
     3    62    21    1
     4    61    21    1
     5    31    16    2
     6    16     6    1
     7    21     9    1
     8    51     6    1
     9    28    70    1
    10    28    14    1
    11    35    19    2
    12    63    22    1
    13    38    20   ar
    14    64    22    1
    15     6    24    1
    16     6    52    1
    17    19    36    1
    18    19     9    1
    19    22    68    1
    20    22    10    1
    21    69    36    1
    22    24    18   am
    23    26    14    2
    24    26    12    1
    25     9    57    1
    26     9     1    1
    27    14     4    1
    28    41     1    1
    29    29    15    2
    30    20    10    1
    31    20    37   ar
    32    60    12    1
    33    18    12    1
    34    18    34    2
    35    65    30    1
    36     1    42    1
    37     1     3    1
    38    12     8    1
    39    10    58    1
    40    10     2    1
    41    53     7    1
    42    47     4    1
    43    54     7    1
    44    15    30    1
    45    15     5    1
    46     4     2    1
    47     4    48    1
    48    39     7    1
    49    39    40    1
    50     7    11    1
    51    46     3    1
    52     2    44    1
    53     2    43    1
    54     3    45    1
    55     3    13    1
    56    50     5    1
    57     8    56    1
    58     8    55    1
    59     8    40    1
    60     5    49    1
    61     5    23    1
    62    13    27    2
    63    13    25   am
    64    11    25    1
    65    11    59    1
    66    11    17    1
    67    23    17    2
    68    17    33    1
    69    33    67    1
