@<TRIPOS>MOLECULE
YQDKULBMDMPFLH-FSRBREEPSA-L	11083893	-778.2209392622481
 22 22 0 0 0
SMALL
MULLIKEN NwChem

@<TRIPOS>ATOM
      1 C          -1.4573   -2.0553   -1.0922 C.2     1  LIG1      -0.3099999999999996
      2 C          -2.8772   -2.1204   -1.0980 C.2     1  LIG1       0.1900000000000004
      3 C           0.7469   -1.0704   -0.6357 C.2     1  LIG1      -0.3099999999999996
      4 C          -1.2475    0.2147    0.0925 C.3     1  LIG1       -0.3600000000000003
      5 C          -0.6626   -1.0109   -0.6096 C.2     1  LIG1      0.20000000000000018
      6 CA          1.5458   -0.0501   -0.1057 C.2     1  LIG1       0.2999999999999998
      7 CA         -0.3671    1.4519   -0.0906 C.3     1  LIG1       -0.04999999999999982
      8 C           3.0873   -0.1995    0.0972 C.2     1  LIG1           0.5
      9 C          -0.8562    2.7257    0.6976 C.2     1  LIG1          0.54
     10 N           1.0104    1.1190    0.2351 N.pl3   1  LIG1      -0.6200000000000001
     11 O          -3.5726   -3.0691   -1.5178 O.2     1  LIG1      -0.5899999999999999
     12 O           3.5797   -1.2853   -0.2925 O.co2   1  LIG1      -0.6500000000000004
     13 OXT         3.6405    0.8012    0.6204 O.co2   1  LIG1      -0.6600000000000001
     14 O          -2.1017    2.8773    0.7301 O.co2   1  LIG1      -0.6699999999999999
     15 OXT         0.0604    3.4550    1.1534 O.co2   1  LIG1      -0.6699999999999999
     16 H          -0.9511   -2.9250   -1.5155 H       1  LIG1       0.10999999999999999
     17 H          -3.3980   -1.2233   -0.6877 H       1  LIG1       0.08999999999999997
     18 H           1.2651   -1.9601   -0.9769 H       1  LIG1          0.12
     19 H          -1.3240   -0.0113    1.1678 H       1  LIG1       0.16000000000000003
     20 H          -2.2536    0.4742   -0.2362 H       1  LIG1       0.17000000000000004
     21 HA         -0.3990    1.7189   -1.1655 H       1  LIG1       0.16000000000000003
     22 H           1.6042    1.8445    0.6293 H       1  LIG1       0.32999999999999996
@<TRIPOS>BOND
     1    11     2    2
     2    16     1    1
     3    21     7    1
     4     2     1    1
     5     2    17    1
     6     1     5    2
     7    18     3    1
     8     3     5    1
     9     3     6    2
    10     5     4    1
    11    12     8   ar
    12    20     4    1
    13     6     8    1
    14     6    10    1
    15     7     4    1
    16     7    10    1
    17     7     9    1
    18     4    19    1
    19     8    13   ar
    20    10    22    1
    21     9    14   ar
    22     9    15   ar
