@<TRIPOS>MOLECULE
YQIFAMYNGGOTFB-XINAWCOVSA-N	6045541	-925.2334647778214
 31 32 0 0 0
SMALL
MULLIKEN NwChem

@<TRIPOS>ATOM
      1 C           1.3268    1.8956   -0.1862 C.3     1  LIG1       -0.17999999999999972
      2 C           1.8065   -2.3180    1.2766 C.3     1  LIG1       -0.07000000000000028
      3 C           1.2917    0.3737   -0.1646 C.2     1  LIG1       0.33000000000000007
      4 C           2.8996   -1.2472    1.0587 C.3     1  LIG1       0.11000000000000032
      5 C          -1.0248    0.3490   -0.2624 C.2     1  LIG1       0.16999999999999993
      6 C           2.6343   -0.3408   -0.1743 C.3     1  LIG1       0.009999999999999787
      7 C          -1.1167    1.7253   -0.0611 C.3     1  LIG1       0.6699999999999999
      8 C          -2.2626   -0.3421   -0.3877 C.2     1  LIG1       0.5199999999999996
      9 C          -3.5537    1.5745   -0.1639 C.cat   1  LIG1       0.6100000000000003
     10 N          -4.6193    2.2824   -0.1016 N.pl3   1  LIG1        -0.75
     11 N           0.0103    2.4514    0.1461 N.3     1  LIG1      -0.6699999999999999
     12 N           0.2010   -0.2996   -0.2292 N.2     1  LIG1      -0.5899999999999999
     13 N          -2.3341    2.3044   -0.0149 N.pl3   1  LIG1      -0.7199999999999998
     14 N          -3.4486    0.2127   -0.3551 N.2     1  LIG1      -0.6299999999999999
     15 O           1.2604   -2.8503    0.0627 O.3     1  LIG1      -0.6799999999999997
     16 O           4.1875   -1.8230    0.8959 O.3     1  LIG1      -0.6799999999999997
     17 O           2.8280   -1.1117   -1.3611 O.3     1  LIG1      -0.6799999999999997
     18 O          -2.1880   -1.6745   -0.5532 O.2     1  LIG1      -0.6199999999999992
     19 H           1.6656    2.2308   -1.1826 H       1  LIG1       0.19999999999999996
     20 H           2.0588    2.2675    0.5410 H       1  LIG1       0.20999999999999996
     21 H           2.2684   -3.1459    1.8223 H       1  LIG1       0.16000000000000003
     22 H           0.9998   -1.9022    1.8944 H       1  LIG1       0.16000000000000003
     23 H           2.9527   -0.6287    1.9648 H       1  LIG1       0.16000000000000003
     24 H           3.4299    0.4133   -0.1911 H       1  LIG1       0.17000000000000004
     25 H          -5.4269    1.6701   -0.2199 H       1  LIG1       0.31000000000000005
     26 H          -0.0659    3.4572    0.2130 H       1  LIG1          0.39
     27 H          -2.4549    3.2994    0.1337 H       1  LIG1          0.38
     28 H           0.5287   -2.2357   -0.1668 H       1  LIG1       0.43000000000000005
     29 H           4.2436   -2.0610   -0.0475 H       1  LIG1       0.42000000000000004
     30 H           2.2465   -1.8953   -1.2478 H       1  LIG1       0.42000000000000004
     31 H          -3.1098   -1.9872   -0.6128 H       1  LIG1       0.44999999999999996
@<TRIPOS>BOND
     1    17    30    1
     2    17     6    1
     3    19     1    1
     4    31    18    1
     5    18     8    1
     6     8    14    1
     7     8     5    2
     8    14     9    2
     9     5    12    1
    10     5     7    1
    11    12     3    2
    12    25    10    1
    13    24     6    1
    14     1     3    1
    15     1    11    1
    16     1    20    1
    17     6     3    1
    18     6     4    1
    19    28    15    1
    20     9    10    1
    21     9    13    1
    22     7    13    1
    23     7    11    1
    24    29    16    1
    25    13    27    1
    26    15     2    1
    27    11    26    1
    28    16     4    1
    29     4     2    1
    30     4    23    1
    31     2    21    1
    32     2    22    1
