@<TRIPOS>MOLECULE
YQIFAMYNGGOTFB-NJGYIYPDSA-N	6045540	-925.2330369833185
 31 32 0 0 0
SMALL
MULLIKEN NwChem

@<TRIPOS>ATOM
      1 C          -1.7604    0.0089    1.3525 C.3     1  LIG1       -0.16999999999999993
      2 C           0.6928    4.4211    0.5379 C.3     1  LIG1       -0.07000000000000028
      3 C          -0.5447    0.7340    0.7919 C.2     1  LIG1       0.3099999999999996
      4 C           0.7496    2.8983    0.4025 C.3     1  LIG1       0.08000000000000007
      5 C           0.2378   -1.2126   -0.1779 C.2     1  LIG1       0.16999999999999993
      6 C          -0.4835    2.2221    1.0477 C.3     1  LIG1       0.08000000000000007
      7 C          -0.6392   -2.0068    0.5606 C.3     1  LIG1       0.6699999999999999
      8 C           1.1089   -1.9128   -1.0594 C.2     1  LIG1       0.5199999999999996
      9 C           0.2878   -4.0097   -0.4882 C.cat   1  LIG1       0.6200000000000001
     10 N           0.1899   -5.2873   -0.5094 N.pl3   1  LIG1      -0.7599999999999998
     11 N          -1.4679   -1.4255    1.4646 N.3     1  LIG1      -0.6600000000000001
     12 N           0.3265    0.1566    0.0475 N.2     1  LIG1      -0.5899999999999999
     13 N          -0.6034   -3.3481    0.4090 N.pl3   1  LIG1      -0.7199999999999998
     14 N           1.1364   -3.2122   -1.2268 N.2     1  LIG1      -0.6299999999999999
     15 O          -0.3732    4.9520   -0.2606 O.3     1  LIG1      -0.6600000000000001
     16 O           0.8625    2.6614   -0.9913 O.3     1  LIG1      -0.6899999999999995
     17 O          -1.7414    2.7345    0.6138 O.3     1  LIG1      -0.7100000000000009
     18 O           1.9618   -1.1655   -1.7828 O.2     1  LIG1      -0.6300000000000008
     19 H          -2.6220    0.2029    0.6945 H       1  LIG1       0.19999999999999996
     20 H          -2.0163    0.3980    2.3430 H       1  LIG1       0.19999999999999996
     21 H           0.4946    4.7229    1.5711 H       1  LIG1       0.18000000000000005
     22 H           1.6546    4.8488    0.2240 H       1  LIG1       0.16000000000000003
     23 H           1.6356    2.5261    0.9427 H       1  LIG1       0.15000000000000002
     24 H          -0.3790    2.3761    2.1413 H       1  LIG1       0.15000000000000002
     25 H           0.8624   -5.6547   -1.1834 H       1  LIG1       0.30000000000000004
     26 H          -2.1545   -2.0030    1.9305 H       1  LIG1          0.39
     27 H          -1.2180   -3.9663    0.9255 H       1  LIG1          0.38
     28 H          -0.2419    4.5515   -1.1403 H       1  LIG1       0.43999999999999995
     29 H           0.9114    1.6883   -1.0857 H       1  LIG1       0.43000000000000005
     30 H          -1.5902    3.6598    0.3305 H       1  LIG1       0.43000000000000005
     31 H           2.4731   -1.8001   -2.3186 H       1  LIG1       0.44999999999999996
@<TRIPOS>BOND
     1    31    18    1
     2    18     8    1
     3    14     8    1
     4    14     9    2
     5    25    10    1
     6    28    15    1
     7    29    16    1
     8     8     5    2
     9    16     4    1
    10    10     9    1
    11     9    13    1
    12    15     2    1
    13     5    12    1
    14     5     7    1
    15    12     3    2
    16    22     2    1
    17    30    17    1
    18     4     2    1
    19     4    23    1
    20     4     6    1
    21    13     7    1
    22    13    27    1
    23     2    21    1
    24     7    11    1
    25    17     6    1
    26    19     1    1
    27     3     6    1
    28     3     1    1
    29     6    24    1
    30     1    11    1
    31     1    20    1
    32    11    26    1
