@<TRIPOS>MOLECULE
YQUAKORMLHPSLZ-XVFCMESISA-L	11083892	-1457.7528763862044
 33 34 0 0 0
SMALL
MULLIKEN NwChem

@<TRIPOS>ATOM
      1 C           3.2777   -0.6278    1.5210 C.ar    1  LIG1      -0.2400000000000002
      2 C           2.0634   -0.0617    1.3741 C.ar    1  LIG1       0.05999999999999961
      3 C          -2.7596   -2.4906   -0.1675 C.3     1  LIG1       -0.03000000000000025
      4 C          -2.2876   -1.0484   -0.0100 C.3     1  LIG1       0.09999999999999964
      5 C           3.5759   -1.8705    0.8067 C.ar    1  LIG1       0.41999999999999993
      6 C          -1.7947   -0.3665   -1.3057 C.3     1  LIG1       0.11000000000000032
      7 C          -0.7317    0.6125   -0.7679 C.3     1  LIG1       0.05999999999999961
      8 C          -0.2307   -0.0407    0.5432 C.3     1  LIG1       0.2599999999999998
      9 C           1.4339   -1.7856   -0.2215 C.ar    1  LIG1       0.6799999999999997
     10 N           4.7337   -2.4489    1.0062 N.pl3   1  LIG1      -0.7999999999999998
     11 N           2.6180   -2.3721   -0.0564 N.ar    1  LIG1      -0.6600000000000001
     12 N           1.1044   -0.6155    0.5505 N.ar    1  LIG1      -0.4900000000000002
     13 O          -1.8690   -3.3407   -0.8461 O.3     1  LIG1      -0.7200000000000006
     14 O          -2.8405    0.2835   -2.0116 O.3     1  LIG1      -0.6999999999999993
     15 O           0.5567   -2.1808   -1.0328 O.2     1  LIG1      -0.6600000000000001
     16 O           0.3018    3.3564   -1.5693 O.2     1  LIG1      -0.6899999999999995
     17 O           0.2148    3.1540    0.9885 O.3     1  LIG1      -0.7300000000000004
     18 O          -1.7701    4.2967   -0.1710 O.3     1  LIG1      -0.6899999999999995
     19 O          -1.2009   -1.0225    0.9195 O.3     1  LIG1      -0.5399999999999991
     20 O          -1.4518    1.8095   -0.4430 O.3     1  LIG1      -0.6199999999999992
     21 P          -0.6719    3.3073   -0.4357 P.3     1  LIG1       1.0700000000000003
     22 H           4.0346   -0.1828    2.1583 H       1  LIG1          0.14
     23 H           1.7767    0.8699    1.8543 H       1  LIG1       0.18999999999999995
     24 H          -3.7101   -2.4679   -0.7262 H       1  LIG1          0.14
     25 H          -2.9898   -2.8745    0.8467 H       1  LIG1          0.13
     26 H          -3.1261   -0.4458    0.3827 H       1  LIG1          0.13
     27 H          -1.3305   -1.1008   -1.9607 H       1  LIG1       0.16000000000000003
     28 H           0.0777    0.8307   -1.4672 H       1  LIG1       0.17000000000000004
     29 H          -0.2173    0.7498    1.2971 H       1  LIG1       0.18000000000000005
     30 H           4.7266   -3.2881    0.4109 H       1  LIG1          0.25
     31 H          -0.9481   -2.9782   -0.7567 H       1  LIG1       0.43999999999999995
     32 H          -2.8332    1.1847   -1.6287 H       1  LIG1       0.43000000000000005
     33 H          -0.4067    3.4111    1.6871 H       1  LIG1       0.43999999999999995
@<TRIPOS>BOND
     1    14    32    1
     2    14     6    1
     3    27     6    1
     4    16    21    2
     5    28     7    1
     6     6     7    1
     7     6     4    1
     8    15     9    2
     9    13    31    1
    10    13     3    1
    11     7    20    1
    12     7     8    1
    13    24     3    1
    14    20    21    1
    15    21    18    1
    16    21    17    1
    17     9    11   ar
    18     9    12   ar
    19     3     4    1
    20     3    25    1
    21    11     5   ar
    22     4    26    1
    23     4    19    1
    24    30    10    1
    25     8    12    1
    26     8    19    1
    27     8    29    1
    28    12     2   ar
    29     5    10    1
    30     5     1   ar
    31    17    33    1
    32     2     1   ar
    33     2    23    1
    34     1    22    1
