@<TRIPOS>MOLECULE
YSKVBPGQYRAUQO-XCFYOIDPSA-N	6045543	-1209.7972492616032
 80 83 0 0 0
SMALL
MULLIKEN NwChem

@<TRIPOS>ATOM
      1 C          -2.2921   -1.6403    3.3203 C.3     1  LIG1      -0.46999999999999975
      2 C          -4.7174    1.9831    3.8592 C.3     1  LIG1      -0.46999999999999975
      3 C          -2.9407    3.0498    5.2561 C.3     1  LIG1      -0.46999999999999975
      4 C          -0.0437    3.5447    2.4799 C.3     1  LIG1      -0.4800000000000004
      5 C          -0.1620   -2.5406   -1.2518 C.3     1  LIG1         -0.5
      6 C           2.3462    3.1123    0.3938 C.3     1  LIG1      -0.4800000000000004
      7 C          -2.8956   -0.2463    3.0993 C.3     1  LIG1      -0.2699999999999996
      8 C          -0.1481    1.0262    2.7826 C.3     1  LIG1      -0.29000000000000004
      9 C          -0.8857    0.9604    4.1371 C.3     1  LIG1      -0.2999999999999998
     10 C          -0.2141   -1.0027   -3.8087 C.3     1  LIG1      -0.3200000000000003
     11 C           0.0714    0.2938   -3.1023 C.2     1  LIG1      -0.23000000000000043
     12 C          -0.5740    2.9353   -0.6466 C.3     1  LIG1      -0.29000000000000004
     13 C           0.4133    2.9624   -1.8414 C.3     1  LIG1      -0.2999999999999998
     14 C           2.5396   -4.1661   -2.9457 C.3     1  LIG1      -0.28000000000000025
     15 C           1.7552   -0.6990    0.0189 C.3     1  LIG1      -0.2999999999999998
     16 C           2.2343   -3.2615   -1.7391 C.3     1  LIG1      -0.3099999999999996
     17 C           2.3244    0.6328    0.4942 C.3     1  LIG1      -0.29000000000000004
     18 C           0.4835   -3.4154   -4.1824 C.3     1  LIG1      -0.3099999999999996
     19 C          -3.1981    2.1647    4.0233 C.3     1  LIG1      -0.07000000000000028
     20 C          -0.4609    2.2093    1.8422 C.3     1  LIG1      -0.08000000000000007
     21 C          -2.4342    0.8086    4.1292 C.3     1  LIG1      -0.04999999999999982
     22 C           0.8512   -2.0662   -3.5227 C.3     1  LIG1      -0.09999999999999964
     23 C           1.2478   -4.6263   -3.6029 C.3     1  LIG1       0.16000000000000014
     24 C           0.9465    0.4306   -2.0965 C.2     1  LIG1      0.16999999999999993
     25 C           0.0306    1.9465    0.3929 C.3     1  LIG1      -0.09999999999999964
     26 C           1.3923    1.8013   -1.5681 C.3     1  LIG1      -0.16999999999999993
     27 C           1.6799   -0.7787   -1.5197 C.3     1  LIG1      -0.17999999999999972
     28 C           1.1388   -2.1661   -2.0010 C.3     1  LIG1      0.1299999999999999
     29 C           1.5409    1.8588   -0.0097 C.3     1  LIG1      0.08999999999999986
     30 O           1.5854   -5.5831   -4.6094 O.3     1  LIG1      -0.6999999999999993
     31 H          -1.2045   -1.6523    3.1963 H       1  LIG1       0.16000000000000003
     32 H          -2.7119   -2.3629    2.6111 H       1  LIG1          0.14
     33 H          -2.5119   -2.0014    4.3330 H       1  LIG1          0.14
     34 H          -5.1252    1.3464    4.6558 H       1  LIG1          0.14
     35 H          -5.2270    2.9520    3.9180 H       1  LIG1          0.14
     36 H          -4.9837    1.5326    2.8985 H       1  LIG1       0.15000000000000002
     37 H          -1.8800    3.2703    5.4087 H       1  LIG1       0.15000000000000002
     38 H          -3.4630    4.0088    5.1601 H       1  LIG1          0.14
     39 H          -3.3115    2.5590    6.1658 H       1  LIG1          0.14
     40 H          -0.1450    4.3857    1.7868 H       1  LIG1       0.15000000000000002
     41 H          -0.6711    3.7657    3.3496 H       1  LIG1       0.15000000000000002
     42 H           0.9945    3.5211    2.8255 H       1  LIG1       0.15000000000000002
     43 H          -0.8816   -1.7155   -1.2562 H       1  LIG1       0.15000000000000002
     44 H          -0.6437   -3.4110   -1.7102 H       1  LIG1       0.15000000000000002
     45 H           0.0381   -2.7995   -0.2080 H       1  LIG1       0.15000000000000002
     46 H           2.6268    3.0688    1.4507 H       1  LIG1       0.15000000000000002
     47 H           3.2748    3.1692   -0.1881 H       1  LIG1          0.14
     48 H           1.7983    4.0456    0.2407 H       1  LIG1       0.15000000000000002
     49 H          -2.6702    0.1002    2.0812 H       1  LIG1          0.14
     50 H          -3.9844   -0.3472    3.1489 H       1  LIG1          0.14
     51 H           0.9260    1.0367    3.0084 H       1  LIG1          0.13
     52 H          -0.3250    0.0930    2.2360 H       1  LIG1          0.14
     53 H          -0.6037    1.8262    4.7450 H       1  LIG1          0.14
     54 H          -0.4716    0.0957    4.6719 H       1  LIG1          0.13
     55 H          -0.2643   -0.8201   -4.8920 H       1  LIG1          0.14
     56 H          -1.2119   -1.3811   -3.5353 H       1  LIG1       0.15000000000000002
     57 H          -0.4450    1.1637   -3.4981 H       1  LIG1          0.12
     58 H          -0.7001    3.9375   -0.2238 H       1  LIG1          0.14
     59 H          -1.5716    2.5981   -0.9481 H       1  LIG1          0.13
     60 H          -0.0874    2.9048   -2.8097 H       1  LIG1          0.14
     61 H           0.9753    3.9015   -1.8534 H       1  LIG1          0.14
     62 H           3.1200   -5.0395   -2.6286 H       1  LIG1          0.14
     63 H           3.1458   -3.6395   -3.6940 H       1  LIG1          0.14
     64 H           2.3708   -1.5237    0.3988 H       1  LIG1          0.14
     65 H           0.7580   -0.8384    0.4456 H       1  LIG1       0.15000000000000002
     66 H           1.9160   -3.8958   -0.9022 H       1  LIG1          0.14
     67 H           3.1692   -2.7888   -1.4161 H       1  LIG1          0.14
     68 H           3.3581    0.7267    0.1268 H       1  LIG1          0.12
     69 H           2.3915    0.6470    1.5872 H       1  LIG1          0.14
     70 H           0.7277   -3.3545   -5.2504 H       1  LIG1          0.14
     71 H          -0.5995   -3.5873   -4.1159 H       1  LIG1          0.14
     72 H          -2.8375    2.7067    3.1408 H       1  LIG1          0.14
     73 H          -1.5528    2.2460    1.7245 H       1  LIG1          0.13
     74 H          -2.7042    0.4050    5.1201 H       1  LIG1       0.10999999999999999
     75 H           1.7836   -1.7138   -3.9864 H       1  LIG1          0.13
     76 H           0.6298   -5.1127   -2.8280 H       1  LIG1          0.12
     77 H          -0.3896    0.9647    0.1382 H       1  LIG1          0.13
     78 H           2.3761    1.9977   -2.0230 H       1  LIG1          0.13
     79 H           2.7206   -0.7038   -1.8826 H       1  LIG1          0.13
     80 H           0.7615   -5.8524   -5.0448 H       1  LIG1       0.42000000000000004
@<TRIPOS>BOND
     1    70    18    1
     2    80    30    1
     3    55    10    1
     4    30    23    1
     5    18    71    1
     6    18    23    1
     7    18    22    1
     8    75    22    1
     9    10    56    1
    10    10    22    1
    11    10    11    1
    12    63    14    1
    13    23    14    1
    14    23    76    1
    15    22    28    1
    16    57    11    1
    17    11    24    2
    18    14    62    1
    19    14    16    1
    20    60    13    1
    21    24    26    1
    22    24    27    1
    23    78    26    1
    24    28    16    1
    25    28    27    1
    26    28     5    1
    27    79    27    1
    28    61    13    1
    29    13    26    1
    30    13    12    1
    31    16    67    1
    32    16    66    1
    33    44     5    1
    34    26    29    1
    35    27    15    1
    36    43     5    1
    37     5    45    1
    38    59    12    1
    39    12    58    1
    40    12    25    1
    41    47     6    1
    42    29    25    1
    43    29     6    1
    44    29    17    1
    45    15    64    1
    46    15    65    1
    47    15    17    1
    48    68    17    1
    49    77    25    1
    50    48     6    1
    51    25    20    1
    52     6    46    1
    53    17    69    1
    54    73    20    1
    55    40     4    1
    56    20     4    1
    57    20     8    1
    58    49     7    1
    59    52     8    1
    60     4    42    1
    61     4    41    1
    62    32     1    1
    63     8    51    1
    64     8     9    1
    65    36     2    1
    66     7    50    1
    67     7     1    1
    68     7    21    1
    69    72    19    1
    70    31     1    1
    71     1    33    1
    72     2    35    1
    73     2    19    1
    74     2    34    1
    75    19    21    1
    76    19     3    1
    77    21     9    1
    78    21    74    1
    79     9    54    1
    80     9    53    1
    81    38     3    1
    82     3    37    1
    83     3    39    1
