@<TRIPOS>MOLECULE
YSYKRGRSMLTJNL-URARBOGNSA-L	11083891	-2620.039838915215
 60 62 0 0 0
SMALL
MULLIKEN NwChem

@<TRIPOS>ATOM
      1 C          -8.9619    1.9656    1.0128 C.3     1  LIG1      -0.5300000000000002
      2 C          -4.3785   -2.0483    0.6837 C.3     1  LIG1       -0.33000000000000007
      3 C          -6.8193    0.6637    0.8937 C.ar    1  LIG1           0.0
      4 C           6.8211    2.5149   -1.2612 C.3     1  LIG1       -0.04999999999999982
      5 C          -1.7884   -0.4640   -0.8544 C.3     1  LIG1       -0.08000000000000007
      6 C          -7.9017    1.1910    0.2867 C.ar    1  LIG1       0.040000000000000036
      7 C          -2.8571   -2.1203    0.8023 C.3     1  LIG1       0.09999999999999964
      8 C           5.9759    1.5091   -0.4775 C.3     1  LIG1       0.08999999999999986
      9 C          -2.4037   -0.6646    0.5309 C.3     1  LIG1       0.09999999999999964
     10 C          -4.7218   -0.5682    0.9315 C.3     1  LIG1       0.29000000000000004
     11 C           6.8136    0.3740    0.1246 C.3     1  LIG1       0.1299999999999999
     12 C           5.8906   -0.6380    0.7707 C.3     1  LIG1       0.08999999999999986
     13 C           4.8784   -1.1637   -0.2431 C.3     1  LIG1       0.1299999999999999
     14 C          -8.0552    0.9782   -1.1747 C.ar    1  LIG1       0.4800000000000004
     15 C           4.1208    0.0276   -0.8622 C.3     1  LIG1       0.28000000000000025
     16 C          -5.9707   -0.1730   -1.2460 C.ar    1  LIG1       0.6600000000000001
     17 N          -7.0665    0.3176   -1.8486 N.ar    1  LIG1      -0.6600000000000001
     18 N          -5.8663   -0.0556    0.2067 N.ar    1  LIG1      -0.4900000000000002
     19 O           7.7001    3.2566   -0.4272 O.3     1  LIG1      -0.6899999999999995
     20 O          -2.4756   -2.5489    2.1053 O.3     1  LIG1      -0.7200000000000006
     21 O           7.7355    0.9160    1.0829 O.3     1  LIG1      -0.6899999999999995
     22 O           6.6898   -1.7003    1.2976 O.3     1  LIG1      -0.6899999999999995
     23 O           4.0992   -2.1134    0.4293 O.3     1  LIG1      -0.7400000000000002
     24 O          -9.0826    1.4154   -1.7359 O.2     1  LIG1      -0.6600000000000001
     25 O          -5.0355   -0.7492   -1.8286 O.2     1  LIG1      -0.6300000000000008
     26 O           0.1712   -2.1953    1.2211 O.3     1  LIG1      -0.6600000000000001
     27 O           1.7978   -1.9092   -0.8268 O.2     1  LIG1      -0.6799999999999997
     28 O           1.7102    2.3810    0.9066 O.3     1  LIG1      -0.6600000000000001
     29 O           1.6669    1.5994   -1.5987 O.2     1  LIG1      -0.6199999999999992
     30 O          -0.6296   -1.2993   -1.0976 O.3     1  LIG1      -0.5700000000000003
     31 O          -3.5461    0.1872    0.6279 O.3     1  LIG1      -0.5500000000000007
     32 O           5.0412    0.9544   -1.4074 O.3     1  LIG1      -0.5199999999999996
     33 O           3.3322    0.6354    0.1609 O.3     1  LIG1      -0.5500000000000007
     34 O           0.8290    0.1387    0.4514 O.3     1  LIG1      -0.6600000000000001
     35 P           0.5761   -1.4963   -0.0398 P.3     1  LIG1       1.2400000000000002
     36 P           1.8420    1.1927   -0.1911 P.3     1  LIG1       1.2300000000000004
     37 H          -9.9463    1.4958    0.8838 H       1  LIG1       0.15000000000000002
     38 H          -9.0618    2.9780    0.5983 H       1  LIG1       0.15000000000000002
     39 H          -8.7474    2.0477    2.0881 H       1  LIG1       0.15000000000000002
     40 H          -4.6959   -2.3144   -0.3231 H       1  LIG1       0.18000000000000005
     41 H          -4.8576   -2.7025    1.4185 H       1  LIG1       0.16000000000000003
     42 H          -6.6417    0.7703    1.9639 H       1  LIG1       0.18000000000000005
     43 H           6.1505    3.2275   -1.7518 H       1  LIG1       0.16000000000000003
     44 H           7.3658    1.9716   -2.0540 H       1  LIG1          0.14
     45 H          -2.5310   -0.7289   -1.6100 H       1  LIG1       0.18999999999999995
     46 H          -1.5010    0.5843   -0.9897 H       1  LIG1       0.17000000000000004
     47 H          -2.4275   -2.7910    0.0465 H       1  LIG1       0.15000000000000002
     48 H           5.4514    2.0358    0.3303 H       1  LIG1       0.16000000000000003
     49 H          -1.6884   -0.3734    1.3083 H       1  LIG1       0.15000000000000002
     50 H          -4.9508   -0.4192    1.9979 H       1  LIG1       0.16000000000000003
     51 H           7.3710   -0.1202   -0.6880 H       1  LIG1       0.15000000000000002
     52 H           5.3342   -0.1479    1.5827 H       1  LIG1          0.14
     53 H           5.4386   -1.6215   -1.0799 H       1  LIG1          0.14
     54 H           3.4860   -0.2848   -1.6903 H       1  LIG1       0.18999999999999995
     55 H           8.0894    2.6186    0.1977 H       1  LIG1       0.43000000000000005
     56 H          -1.4949   -2.5360    2.0641 H       1  LIG1       0.43000000000000005
     57 H           8.0513    0.1549    1.5979 H       1  LIG1       0.43999999999999995
     58 H           6.0429   -2.3979    1.5073 H       1  LIG1       0.43000000000000005
     59 H           3.1970   -2.1663   -0.0043 H       1  LIG1          0.47
     60 H           1.1083    2.0846    1.6087 H       1  LIG1           0.48
@<TRIPOS>BOND
     1    44     4    1
     2    17    16   ar
     3    17    14   ar
     4    25    16    2
     5    43     4    1
     6    24    14    2
     7    54    15    1
     8    45     5    1
     9    29    36    2
    10    32    15    1
    11    32     8    1
    12     4     8    1
    13     4    19    1
    14    16    18   ar
    15    14     6   ar
    16    30     5    1
    17    30    35    1
    18    53    13    1
    19    46     5    1
    20    15    13    1
    21    15    33    1
    22     5     9    1
    23    27    35    2
    24    51    11    1
    25     8    11    1
    26     8    48    1
    27    19    55    1
    28    40     2    1
    29    13    23    1
    30    13    12    1
    31    36    33    1
    32    36    34    1
    33    36    28    1
    34    35    34    1
    35    35    26    1
    36    59    23    1
    37    47     7    1
    38    11    12    1
    39    11    21    1
    40    18     3   ar
    41    18    10    1
    42     6     3   ar
    43     6     1    1
    44     9    31    1
    45     9     7    1
    46     9    49    1
    47    38     1    1
    48    31    10    1
    49     2     7    1
    50     2    10    1
    51     2    41    1
    52    12    22    1
    53    12    52    1
    54     7    20    1
    55    37     1    1
    56     3    42    1
    57    28    60    1
    58    10    50    1
    59     1    39    1
    60    21    57    1
    61    22    58    1
    62    56    20    1
