@<TRIPOS>MOLECULE
YSZSVGFMAJXGMQ-FRICUITQSA-M	6045545	-1781.431049998456
 97 97 0 0 0
SMALL
MULLIKEN NwChem

@<TRIPOS>ATOM
      1 C           1.5356   -4.0357    1.7846 C.3     1  LIG1            -0.54
      2 C           2.9435   -3.3448    3.7853 C.3     1  LIG1      -0.5300000000000002
      3 C           5.5768   -1.8811   -1.8065 C.3     1  LIG1      -0.5300000000000002
      4 C           3.4939    1.7784    3.1055 C.3     1  LIG1      -0.5300000000000002
      5 C          -1.5730   -1.9710    1.7278 C.3     1  LIG1        -0.54
      6 C           1.6080   -1.7039   -3.3464 C.3     1  LIG1      -0.5499999999999998
      7 C           1.2653    2.3815   -1.9022 C.3     1  LIG1        -0.54
      8 C          -5.7984    4.1120    2.4237 C.3     1  LIG1       -0.23000000000000043
      9 C           4.1382   -4.4033    0.2030 C.3     1  LIG1      -0.2999999999999998
     10 C           5.1384    0.1342    0.6200 C.3     1  LIG1      -0.3200000000000003
     11 C           0.7638    0.3921    2.3853 C.3     1  LIG1      -0.3200000000000003
     12 C          -0.4706   -2.4714   -1.1752 C.3     1  LIG1      -0.33000000000000007
     13 C           0.5351    0.9536   -4.6034 C.3     1  LIG1      -0.3099999999999996
     14 C           4.0489   -4.0213    1.6632 C.2     1  LIG1      -0.1900000000000004
     15 C           3.6999   -3.2584   -0.7525 C.3     1  LIG1      -0.34999999999999964
     16 C           4.4109   -1.1474    0.3204 C.2     1  LIG1      -0.16999999999999993
     17 C           4.1746    1.3563    0.6708 C.3     1  LIG1      -0.33999999999999986
     18 C           1.9495    0.6198    1.4818 C.2     1  LIG1      -0.16999999999999993
     19 C          -0.5516    0.3502    1.5641 C.3     1  LIG1      -0.34999999999999964
     20 C          -0.3434   -1.2177   -0.3505 C.2     1  LIG1      -0.16999999999999993
     21 C          -0.8084   -2.1863   -2.6617 C.3     1  LIG1      -0.33999999999999986
     22 C          -0.2701   -0.1163   -3.9165 C.2     1  LIG1      -0.1900000000000004
     23 C           0.0864    2.3761   -4.1761 C.3     1  LIG1      -0.33999999999999986
     24 C          -1.1862    2.9598   -2.1345 C.2     1  LIG1      -0.1900000000000004
     25 C          -1.5102    3.2928   -0.7102 C.3     1  LIG1      -0.3700000000000001
     26 C          -2.9817    1.2203   -0.4898 C.2     1  LIG1      -0.23000000000000043
     27 C          -4.6797    1.0956    1.2468 C.2     1  LIG1      -0.2599999999999998
     28 C           2.9167   -3.8429    2.3593 C.2     1  LIG1      0.17999999999999972
     29 C           4.5744   -2.0163   -0.6884 C.2     1  LIG1      0.16000000000000014
     30 C           3.1093    1.2411    1.7478 C.2     1  LIG1      0.16000000000000014
     31 C          -0.7941   -0.9855    0.8909 C.2     1  LIG1      0.16999999999999993
     32 C           0.1649   -1.2542   -3.3566 C.2     1  LIG1      0.17999999999999972
     33 C          -0.0166    2.5857   -2.6781 C.2     1  LIG1      0.17999999999999972
     34 C          -2.6631    2.5074   -0.1053 C.2     1  LIG1       0.040000000000000036
     35 C          -3.9803    0.4700    0.1820 C.3     1  LIG1       0.04999999999999982
     36 C          -4.4011    2.3834    1.6286 C.2     1  LIG1          0.25
     37 C          -3.3516    3.1741    0.9980 C.2     1  LIG1       0.3200000000000003
     38 C          -4.3198   -0.8983   -0.1292 C.2     1  LIG1       0.5199999999999996
     39 O          -3.0470    4.3394    1.3761 O.2     1  LIG1      -0.6999999999999993
     40 O          -5.1370   -1.6145    0.4516 O.2     1  LIG1      -0.5999999999999996
     41 O          -3.6182   -1.4461   -1.1927 O.3     1  LIG1      -0.6199999999999992
     42 O          -5.1054    2.9025    2.7096 O.2     1  LIG1      -0.5600000000000005
     43 H           0.8932   -4.5843    2.4854 H       1  LIG1       0.15000000000000002
     44 H           1.5387   -4.5737    0.8354 H       1  LIG1       0.17000000000000004
     45 H           1.0591   -3.0607    1.6061 H       1  LIG1       0.18000000000000005
     46 H           3.9665   -3.2223    4.1545 H       1  LIG1       0.16000000000000003
     47 H           2.4358   -2.3715    3.8643 H       1  LIG1       0.17000000000000004
     48 H           2.4152   -4.0289    4.4637 H       1  LIG1       0.15000000000000002
     49 H           6.2087   -0.9944   -1.7101 H       1  LIG1       0.16000000000000003
     50 H           6.2301   -2.7656   -1.8588 H       1  LIG1       0.16000000000000003
     51 H           5.0514   -1.8222   -2.7735 H       1  LIG1       0.16000000000000003
     52 H           3.6742    2.8618    3.0727 H       1  LIG1       0.16000000000000003
     53 H           2.7351    1.5809    3.8663 H       1  LIG1       0.16000000000000003
     54 H           4.4310    1.3146    3.4484 H       1  LIG1       0.16000000000000003
     55 H          -2.5824   -1.5779    1.9096 H       1  LIG1       0.16000000000000003
     56 H          -1.6694   -2.9545    1.2633 H       1  LIG1       0.16000000000000003
     57 H          -1.0973   -2.1050    2.7099 H       1  LIG1       0.16000000000000003
     58 H           2.2574   -1.0956   -3.9813 H       1  LIG1       0.16000000000000003
     59 H           2.0130   -1.6834   -2.3279 H       1  LIG1       0.18000000000000005
     60 H           1.6790   -2.7465   -3.6890 H       1  LIG1       0.16000000000000003
     61 H           1.9950    3.1766   -2.1330 H       1  LIG1       0.15000000000000002
     62 H           1.1148    2.3724   -0.8200 H       1  LIG1       0.17000000000000004
     63 H           1.7432    1.4276   -2.1750 H       1  LIG1       0.17000000000000004
     64 H          -5.1000    4.9119    2.1619 H       1  LIG1       0.16000000000000003
     65 H          -6.5171    3.9675    1.6007 H       1  LIG1          0.14
     66 H          -6.3581    4.3760    3.3282 H       1  LIG1       0.16000000000000003
     67 H           5.1675   -4.7064   -0.0310 H       1  LIG1          0.14
     68 H           3.5012   -5.2762   -0.0042 H       1  LIG1       0.15000000000000002
     69 H           5.6350    0.0404    1.5997 H       1  LIG1          0.14
     70 H           5.9330    0.3375   -0.1075 H       1  LIG1       0.15000000000000002
     71 H           0.8809   -0.5529    2.9423 H       1  LIG1       0.16000000000000003
     72 H           0.6924    1.1849    3.1388 H       1  LIG1       0.15000000000000002
     73 H           0.4680   -3.0478   -1.1291 H       1  LIG1       0.16000000000000003
     74 H          -1.2480   -3.1262   -0.7701 H       1  LIG1       0.15000000000000002
     75 H           1.6049    0.8283   -4.4039 H       1  LIG1       0.15000000000000002
     76 H           0.4218    0.8725   -5.6957 H       1  LIG1       0.15000000000000002
     77 H           4.9908   -3.8011    2.1614 H       1  LIG1          0.12
     78 H           3.6750   -3.6444   -1.7807 H       1  LIG1          0.14
     79 H           2.6704   -2.9928   -0.4984 H       1  LIG1       0.17000000000000004
     80 H           3.6322   -1.3823    1.0402 H       1  LIG1          0.13
     81 H           4.7766    2.2595    0.8405 H       1  LIG1          0.14
     82 H           3.7060    1.4662   -0.3136 H       1  LIG1       0.15000000000000002
     83 H           1.8209    0.2352    0.4717 H       1  LIG1          0.13
     84 H          -1.4006    0.5971    2.2107 H       1  LIG1          0.13
     85 H          -0.5210    1.1447    0.8174 H       1  LIG1       0.17000000000000004
     86 H           0.1477   -0.3914   -0.8623 H       1  LIG1          0.13
     87 H          -0.8226   -3.1529   -3.1919 H       1  LIG1          0.13
     88 H          -1.8159   -1.7659   -2.7100 H       1  LIG1       0.16000000000000003
     89 H          -1.3364    0.0984   -3.8529 H       1  LIG1          0.12
     90 H           0.7977    3.0996   -4.6083 H       1  LIG1          0.14
     91 H          -0.8889    2.5918   -4.6299 H       1  LIG1          0.14
     92 H          -2.0385    3.0608   -2.8149 H       1  LIG1          0.12
     93 H          -0.6220    3.2017   -0.0679 H       1  LIG1       0.15000000000000002
     94 H          -1.7849    4.3564   -0.6373 H       1  LIG1          0.14
     95 H          -2.4188    0.7498   -1.2867 H       1  LIG1          0.13
     96 H          -5.4477    0.5374    1.7735 H       1  LIG1          0.12
     97 H          -3.9559   -2.3590   -1.2294 H       1  LIG1       0.42000000000000004
@<TRIPOS>BOND
     1    76    13    1
     2    91    23    1
     3    90    23    1
     4    13    75    1
     5    13    23    1
     6    13    22    1
     7    23    33    1
     8    58     6    1
     9    22    89    1
    10    22    32    2
    11    60     6    1
    12    32     6    1
    13    32    21    1
    14     6    59    1
    15    87    21    1
    16    92    24    1
    17    51     3    1
    18    88    21    1
    19    33    24    2
    20    33     7    1
    21    21    12    1
    22    63     7    1
    23    24    25    1
    24    61     7    1
    25     7    62    1
    26    50     3    1
    27     3    49    1
    28     3    29    1
    29    78    15    1
    30    95    26    1
    31    97    41    1
    32    41    38    1
    33    12    73    1
    34    12    74    1
    35    12    20    1
    36    86    20    1
    37    15    29    1
    38    15    79    1
    39    15     9    1
    40    25    94    1
    41    25    34    1
    42    25    93    1
    43    29    16    2
    44    26    34    2
    45    26    35    1
    46    20    31    2
    47    82    17    1
    48    38    35    1
    49    38    40    2
    50    70    10    1
    51    34    37    1
    52    67     9    1
    53    68     9    1
    54    35    27    1
    55     9    14    1
    56    16    10    1
    57    16    80    1
    58    83    18    1
    59    10    17    1
    60    10    69    1
    61    17    81    1
    62    17    30    1
    63    85    19    1
    64    44     1    1
    65    31    19    1
    66    31     5    1
    67    37    39    2
    68    37    36    1
    69    27    36    2
    70    27    96    1
    71    56     5    1
    72    18    30    2
    73    18    11    1
    74    19    84    1
    75    19    11    1
    76    65     8    1
    77    45     1    1
    78    36    42    1
    79    14    77    1
    80    14    28    2
    81     5    55    1
    82     5    57    1
    83    30     4    1
    84     1    28    1
    85     1    43    1
    86    64     8    1
    87    28     2    1
    88    11    71    1
    89    11    72    1
    90     8    42    1
    91     8    66    1
    92    52     4    1
    93     4    54    1
    94     4    53    1
    95     2    47    1
    96     2    46    1
    97     2    48    1
