@<TRIPOS>MOLECULE
YUDPTGPSBJVHCN-YMILTQATSA-N	6045546	-1222.0459619663839
 42 44 0 0 0
SMALL
MULLIKEN NwChem

@<TRIPOS>ATOM
      1 C          -1.6924   -5.5408   -0.2998 C.3     1  LIG1      -0.5499999999999998
      2 C          -0.0098   -1.6454    0.8439 C.ar    1  LIG1      -0.1900000000000004
      3 C          -0.5446   -2.8752    0.4818 C.ar    1  LIG1      -0.23000000000000043
      4 C          -2.7289   -4.2868   -2.1934 C.ar    1  LIG1       -0.3200000000000003
      5 C          -1.1149   -0.6250   -1.0658 C.ar    1  LIG1       -0.2599999999999998
      6 C           0.1976    3.7279   -0.1100 C.3     1  LIG1       -0.05999999999999961
      7 C          -1.9517   -4.2814   -1.0811 C.ar    1  LIG1      0.20999999999999996
      8 C          -0.3058   -0.5131    0.0645 C.ar    1  LIG1       0.3799999999999999
      9 C          -1.3660   -3.0246   -0.6482 C.ar    1  LIG1       0.08000000000000007
     10 C          -1.6329   -1.8680   -1.4137 C.ar    1  LIG1       0.3200000000000003
     11 C           0.9310    3.4623    1.2186 C.3     1  LIG1       0.08999999999999986
     12 C          -3.0066   -3.0933   -2.9790 C.ar    1  LIG1       0.6100000000000003
     13 C           2.4475    3.3391    1.0615 C.3     1  LIG1       0.08000000000000007
     14 C           2.9005    1.9163    0.6595 C.3     1  LIG1       0.08000000000000007
     15 C           2.2534    0.8792    1.5996 C.3     1  LIG1       0.07000000000000028
     16 C           0.7267    1.0731    1.6270 C.3     1  LIG1       0.3099999999999996
     17 O           0.5398    5.0104   -0.6189 O.3     1  LIG1      -0.6600000000000001
     18 O          -3.6896   -3.0350   -3.9731 O.2     1  LIG1      -0.5399999999999991
     19 O           3.0086    3.6831    2.3460 O.3     1  LIG1      -0.6699999999999999
     20 O           2.6478    1.6484   -0.7109 O.3     1  LIG1      -0.6899999999999995
     21 O           2.7642    0.9505    2.9158 O.3     1  LIG1      -0.6799999999999997
     22 O           0.1769    0.7436    0.3192 O.3     1  LIG1      -0.5800000000000001
     23 O          -2.4173   -1.9076   -2.5259 O.2     1  LIG1      -0.5399999999999991
     24 O           0.3437    2.3659    1.9500 O.3     1  LIG1      -0.5199999999999996
     25 H          -0.6183   -5.7587   -0.2538 H       1  LIG1       0.18999999999999995
     26 H          -2.1968   -6.3980   -0.7527 H       1  LIG1       0.18999999999999995
     27 H          -2.0459   -5.4403    0.7337 H       1  LIG1       0.18999999999999995
     28 H           0.6385   -1.5789    1.7090 H       1  LIG1       0.18999999999999995
     29 H          -0.3095   -3.7434    1.0887 H       1  LIG1       0.18000000000000005
     30 H          -3.1932   -5.1939   -2.5639 H       1  LIG1       0.18000000000000005
     31 H          -1.3473    0.2473   -1.6653 H       1  LIG1       0.18000000000000005
     32 H           0.4946    3.0163   -0.8789 H       1  LIG1       0.16000000000000003
     33 H          -0.8814    3.6121    0.0636 H       1  LIG1       0.16000000000000003
     34 H           0.7501    4.3238    1.8713 H       1  LIG1       0.18000000000000005
     35 H           2.7624    4.0553    0.2930 H       1  LIG1       0.16000000000000003
     36 H           3.9875    1.8532    0.7972 H       1  LIG1       0.17000000000000004
     37 H           2.4743   -0.1229    1.2176 H       1  LIG1       0.18000000000000005
     38 H           0.2696    0.4355    2.3872 H       1  LIG1       0.18999999999999995
     39 H           0.1428    5.6795   -0.0393 H       1  LIG1       0.43000000000000005
     40 H           3.9750    3.7044    2.2531 H       1  LIG1       0.43999999999999995
     41 H           1.7519    1.2777   -0.7787 H       1  LIG1       0.44999999999999996
     42 H           2.7325    1.8938    3.1689 H       1  LIG1       0.43000000000000005
@<TRIPOS>BOND
     1    18    12    2
     2    12    23   ar
     3    12     4   ar
     4    30     4    1
     5    23    10   ar
     6     4     7   ar
     7    31     5    1
     8    10     5   ar
     9    10     9   ar
    10     7     9   ar
    11     7     1    1
    12     5     8   ar
    13    32     6    1
    14    41    20    1
    15    26     1    1
    16    20    14    1
    17     9     3   ar
    18    17     6    1
    19    17    39    1
    20     1    25    1
    21     1    27    1
    22     6    33    1
    23     6    11    1
    24     8    22    1
    25     8     2   ar
    26    35    13    1
    27    22    16    1
    28     3     2   ar
    29     3    29    1
    30    14    36    1
    31    14    13    1
    32    14    15    1
    33     2    28    1
    34    13    11    1
    35    13    19    1
    36    37    15    1
    37    11    34    1
    38    11    24    1
    39    15    16    1
    40    15    21    1
    41    16    24    1
    42    16    38    1
    43    40    19    1
    44    21    42    1
