@<TRIPOS>MOLECULE
YUGMCLJIWGEKCK-QMMMGPOBSA-N	6045548	-610.4221323982617
 20 20 0 0 0
SMALL
MULLIKEN NwChem

@<TRIPOS>ATOM
      1 C           0.0699    1.1115   -0.7767 C.ar    1  LIG1      -0.20000000000000018
      2 C           0.3036    0.4213   -1.9688 C.ar    1  LIG1      -0.21999999999999975
      3 C          -0.2675   -0.9970    0.3418 C.ar    1  LIG1      -0.2699999999999996
      4 C           0.3467    2.3627    1.8960 C.2     1  LIG1       0.2400000000000002
      5 C          -0.2134    0.4037    0.3925 C.ar    1  LIG1      0.07000000000000028
      6 C           0.2577   -0.9707   -2.0210 C.ar    1  LIG1       0.3099999999999996
      7 C          -0.0366   -1.6887   -0.8446 C.ar    1  LIG1       0.3200000000000003
      8 C          -0.5105    1.1063    1.7192 C.3     1  LIG1       0.019999999999999574
      9 O           0.1419    3.4161    1.3389 O.2     1  LIG1      -0.4299999999999997
     10 O           0.4797   -1.6958   -3.1561 O.3     1  LIG1      -0.6799999999999997
     11 O          -0.0828   -3.0503   -0.9419 O.3     1  LIG1      -0.6799999999999997
     12 O          -0.3489    0.2597    2.8516 O.3     1  LIG1      -0.6500000000000004
     13 H           0.1045    2.1951   -0.7683 H       1  LIG1       0.16000000000000003
     14 H           0.5292    0.9760   -2.8780 H       1  LIG1       0.17000000000000004
     15 H          -0.5176   -1.5551    1.2410 H       1  LIG1       0.17000000000000004
     16 H           1.1973    2.2283    2.6051 H       1  LIG1       0.15000000000000002
     17 H          -1.5595    1.4258    1.7439 H       1  LIG1       0.19999999999999996
     18 H           0.6500   -1.0819   -3.8871 H       1  LIG1       0.44999999999999996
     19 H          -0.3246   -3.4146   -0.0764 H       1  LIG1       0.44999999999999996
     20 H           0.5325   -0.1455    2.7902 H       1  LIG1       0.43000000000000005
@<TRIPOS>BOND
     1    18    10    1
     2    10     6    1
     3    14     2    1
     4     6     2   ar
     5     6     7   ar
     6     2     1   ar
     7    11     7    1
     8    11    19    1
     9     7     3   ar
    10     1    13    1
    11     1     5   ar
    12     3     5   ar
    13     3    15    1
    14     5     8    1
    15     9     4    2
    16     8    17    1
    17     8     4    1
    18     8    12    1
    19     4    16    1
    20    20    12    1
