@<TRIPOS>MOLECULE
YWVPPRXIDDCHCQ-CUHBLUQCSA-N	6045549	-1788.5578215674016
 108 108 0 0 0
SMALL
MULLIKEN NwChem

@<TRIPOS>ATOM
      1 C          -2.3165   -0.2344   -4.9692 C.3     1  LIG1            -0.54
      2 C          -3.7815    1.8286   -4.7418 C.3     1  LIG1        -0.54
      3 C          -3.5594   -2.8084   -0.0604 C.3     1  LIG1        -0.54
      4 C          -5.5152    2.4187    0.9368 C.3     1  LIG1        -0.54
      5 C          -0.2418    2.5032   -2.9231 C.3     1  LIG1        -0.54
      6 C           0.0199   -3.3497   -0.5935 C.3     1  LIG1        -0.54
      7 C          -1.7465    0.3657    3.1235 C.3     1  LIG1      -0.5499999999999998
      8 C           1.8635    3.2652    0.7760 C.3     1  LIG1      -0.5499999999999998
      9 C           5.9842   -3.6920    0.2797 C.3     1  LIG1       -0.23000000000000043
     10 C          -4.6440   -1.8726   -3.7450 C.3     1  LIG1      -0.3099999999999996
     11 C          -5.8921   -0.9114    0.4957 C.3     1  LIG1      -0.3099999999999996
     12 C          -2.9572    2.6292   -0.8826 C.3     1  LIG1      -0.3200000000000003
     13 C           0.4535   -0.4284   -2.0162 C.3     1  LIG1      -0.3200000000000003
     14 C          -0.2440   -2.2403    2.3137 C.3     1  LIG1      -0.3200000000000003
     15 C           0.4797    2.4224    3.5764 C.3     1  LIG1      -0.3099999999999996
     16 C           7.5642    0.1983    2.1790 C.ar    1  LIG1      -0.16999999999999993
     17 C          -4.6219   -0.3748   -3.9614 C.2     1  LIG1      -0.20000000000000018
     18 C          -3.8485   -2.4083   -2.5370 C.3     1  LIG1      -0.33000000000000007
     19 C          -5.3963   -1.3059   -0.8786 C.2     1  LIG1      -0.20000000000000018
     20 C          -4.8852   -0.0266    1.2784 C.3     1  LIG1      -0.33999999999999986
     21 C          -3.4935    1.4029   -0.1965 C.2     1  LIG1      -0.17999999999999972
     22 C          -1.4205    2.7665   -0.6795 C.3     1  LIG1      -0.34999999999999964
     23 C          -0.2960    0.6201   -1.2371 C.2     1  LIG1      -0.17999999999999972
     24 C           1.4017   -1.2607   -1.1112 C.3     1  LIG1      -0.34999999999999964
     25 C           0.5592   -1.6431    1.1818 C.2     1  LIG1      -0.17999999999999972
     26 C          -0.0284   -1.4727    3.6413 C.3     1  LIG1      -0.33999999999999986
     27 C           0.6231    0.9249    3.7107 C.2     1  LIG1      -0.17999999999999972
     28 C           1.8429    3.1165    3.3523 C.3     1  LIG1      -0.34999999999999964
     29 C           6.4563    0.9922    1.9025 C.ar    1  LIG1      -0.20999999999999996
     30 C           7.6938   -1.0435    1.5523 C.ar    1  LIG1      -0.20000000000000018
     31 C           3.5748    1.9399    2.0123 C.2     1  LIG1      -0.1900000000000004
     32 C           4.2747    1.4939    0.7436 C.3     1  LIG1      -0.41000000000000014
     33 C          -3.6349    0.3436   -4.5161 C.2     1  LIG1      0.17999999999999972
     34 C          -4.3633   -2.1191   -1.1419 C.2     1  LIG1      0.16999999999999993
     35 C          -4.5564    1.2983    0.6162 C.2     1  LIG1      0.16000000000000014
     36 C          -0.6156    1.8704   -1.6043 C.2     1  LIG1      0.16999999999999993
     37 C           0.6625   -2.0863   -0.0798 C.2     1  LIG1      0.16999999999999993
     38 C          -0.3353    0.0059    3.5261 C.2     1  LIG1      0.16999999999999993
     39 C           2.4973    2.7351    2.0447 C.2     1  LIG1      0.17999999999999972
     40 C           5.4664    0.5860    0.9937 C.ar    1  LIG1       0.1299999999999999
     41 C           6.7352   -1.4688    0.6381 C.ar    1  LIG1       0.3200000000000003
     42 C           5.6264   -0.6474    0.3406 C.ar    1  LIG1       0.20000000000000018
     43 O           4.7636   -1.1308   -0.6090 O.3     1  LIG1      -0.6699999999999999
     44 O           6.9289   -2.6603   -0.0202 O.3     1  LIG1      -0.5500000000000007
     45 H          -2.0661    0.1030   -5.9847 H       1  LIG1       0.16000000000000003
     46 H          -2.3011   -1.3278   -4.9605 H       1  LIG1       0.16000000000000003
     47 H          -1.5069    0.1118   -4.3119 H       1  LIG1       0.18000000000000005
     48 H          -4.7056    2.2216   -4.3047 H       1  LIG1       0.16000000000000003
     49 H          -2.9382    2.3829   -4.3115 H       1  LIG1       0.17000000000000004
     50 H          -3.7872    2.0615   -5.8173 H       1  LIG1       0.16000000000000003
     51 H          -4.0698   -2.8304    0.9063 H       1  LIG1       0.16000000000000003
     52 H          -3.3321   -3.8459   -0.3408 H       1  LIG1       0.15000000000000002
     53 H          -2.5922   -2.3065    0.0848 H       1  LIG1       0.18000000000000005
     54 H          -5.5127    2.6360    2.0140 H       1  LIG1       0.16000000000000003
     55 H          -5.2996    3.3469    0.4026 H       1  LIG1       0.16000000000000003
     56 H          -6.5430    2.1247    0.6846 H       1  LIG1       0.16000000000000003
     57 H           0.5309    3.2712   -2.7700 H       1  LIG1       0.16000000000000003
     58 H           0.1313    1.7887   -3.6614 H       1  LIG1       0.17000000000000004
     59 H          -1.1031    3.0192   -3.3655 H       1  LIG1       0.17000000000000004
     60 H           0.7801   -4.0229   -1.0138 H       1  LIG1       0.16000000000000003
     61 H          -0.5250   -3.8919    0.1834 H       1  LIG1       0.17000000000000004
     62 H          -0.6880   -3.1337   -1.4058 H       1  LIG1       0.17000000000000004
     63 H          -2.0265    1.3773    3.4351 H       1  LIG1       0.16000000000000003
     64 H          -1.8787    0.3225    2.0325 H       1  LIG1       0.18999999999999995
     65 H          -2.4720   -0.3346    3.5608 H       1  LIG1       0.16000000000000003
     66 H           2.6052    3.7618    0.1358 H       1  LIG1       0.16000000000000003
     67 H           1.4120    2.4624    0.1771 H       1  LIG1       0.18000000000000005
     68 H           1.0726    3.9910    0.9906 H       1  LIG1       0.16000000000000003
     69 H           6.0624   -3.9945    1.3335 H       1  LIG1       0.16000000000000003
     70 H           4.9586   -3.3797    0.0588 H       1  LIG1       0.17000000000000004
     71 H           6.2519   -4.5366   -0.3583 H       1  LIG1       0.17000000000000004
     72 H          -5.6851   -2.2057   -3.6521 H       1  LIG1          0.14
     73 H          -4.2460   -2.3729   -4.6379 H       1  LIG1       0.15000000000000002
     74 H          -6.8443   -0.3764    0.3992 H       1  LIG1          0.14
     75 H          -6.1079   -1.8009    1.1048 H       1  LIG1       0.15000000000000002
     76 H          -3.1704    2.5837   -1.9600 H       1  LIG1       0.16000000000000003
     77 H          -3.4478    3.5345   -0.5069 H       1  LIG1       0.15000000000000002
     78 H          -0.2596   -1.1123   -2.5023 H       1  LIG1       0.16000000000000003
     79 H           1.0399    0.0194   -2.8264 H       1  LIG1       0.15000000000000002
     80 H          -1.3147   -2.2285    2.0622 H       1  LIG1       0.16000000000000003
     81 H           0.0095   -3.2976    2.4699 H       1  LIG1       0.15000000000000002
     82 H          -0.1983    2.6747    2.7503 H       1  LIG1       0.17000000000000004
     83 H           0.0201    2.8444    4.4835 H       1  LIG1       0.15000000000000002
     84 H           8.3192    0.5384    2.8820 H       1  LIG1       0.15000000000000002
     85 H          -5.5146    0.1683   -3.6533 H       1  LIG1          0.13
     86 H          -3.7649   -3.5017   -2.6443 H       1  LIG1          0.14
     87 H          -2.8138   -2.0357   -2.6036 H       1  LIG1       0.17000000000000004
     88 H          -5.9050   -0.8297   -1.7114 H       1  LIG1          0.13
     89 H          -5.2960    0.1603    2.2817 H       1  LIG1          0.13
     90 H          -3.9654   -0.5994    1.4230 H       1  LIG1       0.16000000000000003
     91 H          -2.9118    0.5003   -0.3790 H       1  LIG1          0.13
     92 H          -1.1315    3.8121   -0.8514 H       1  LIG1          0.14
     93 H          -1.1873    2.5437    0.3692 H       1  LIG1       0.16000000000000003
     94 H          -0.6108    0.2996   -0.2453 H       1  LIG1          0.14
     95 H           2.0251   -1.9078   -1.7432 H       1  LIG1          0.14
     96 H           2.0726   -0.5641   -0.5939 H       1  LIG1          0.14
     97 H           1.0674   -0.7100    1.4242 H       1  LIG1          0.12
     98 H          -0.6671   -1.9288    4.4126 H       1  LIG1          0.14
     99 H           1.0109   -1.6081    3.9653 H       1  LIG1          0.14
    100 H           1.6208    0.5776    3.9787 H       1  LIG1          0.12
    101 H           1.6943    4.2054    3.3792 H       1  LIG1          0.14
    102 H           2.5073    2.8658    4.1894 H       1  LIG1          0.14
    103 H           6.3438    1.9550    2.3955 H       1  LIG1       0.15000000000000002
    104 H           8.5387   -1.6981    1.7433 H       1  LIG1       0.15000000000000002
    105 H           3.9901    1.5690    2.9463 H       1  LIG1          0.13
    106 H           3.5289    1.0184    0.0893 H       1  LIG1       0.16000000000000003
    107 H           4.6061    2.3771    0.1755 H       1  LIG1       0.18999999999999995
    108 H           4.0623   -0.4845   -0.7724 H       1  LIG1       0.43999999999999995
@<TRIPOS>BOND
     1    45     1    1
     2    50     2    1
     3     1    46    1
     4     1    33    1
     5     1    47    1
     6     2    33    1
     7     2    49    1
     8     2    48    1
     9    73    10    1
    10    33    17    2
    11    17    10    1
    12    17    85    1
    13    10    72    1
    14    10    18    1
    15    58     5    1
    16    59     5    1
    17     5    57    1
    18     5    36    1
    19    79    13    1
    20    86    18    1
    21    87    18    1
    22    18    34    1
    23    78    13    1
    24    13    23    1
    25    13    24    1
    26    76    12    1
    27    95    24    1
    28    88    19    1
    29    36    23    2
    30    36    22    1
    31    62     6    1
    32    23    94    1
    33    34    19    2
    34    34     3    1
    35    24    96    1
    36    24    37    1
    37    60     6    1
    38    12    22    1
    39    12    77    1
    40    12    21    1
    41    19    11    1
    42    92    22    1
    43   108    43    1
    44    22    93    1
    45    43    42    1
    46     6    37    1
    47     6    61    1
    48    91    21    1
    49    71     9    1
    50    52     3    1
    51    21    35    2
    52    37    25    2
    53     3    53    1
    54     3    51    1
    55    44     9    1
    56    44    41    1
    57    70     9    1
    58   106    32    1
    59    66     8    1
    60   107    32    1
    61    67     8    1
    62     9    69    1
    63    42    41   ar
    64    42    40   ar
    65    74    11    1
    66    55     4    1
    67    11    75    1
    68    11    20    1
    69    35     4    1
    70    35    20    1
    71    41    30   ar
    72    56     4    1
    73    32    40    1
    74    32    31    1
    75     8    68    1
    76     8    39    1
    77     4    54    1
    78    40    29   ar
    79    25    97    1
    80    25    14    1
    81    20    90    1
    82    20    89    1
    83    30   104    1
    84    30    16   ar
    85    29    16   ar
    86    29   103    1
    87    31    39    2
    88    31   105    1
    89    64     7    1
    90    39    28    1
    91    80    14    1
    92    16    84    1
    93    14    81    1
    94    14    26    1
    95    82    15    1
    96     7    63    1
    97     7    38    1
    98     7    65    1
    99    28   101    1
   100    28    15    1
   101    28   102    1
   102    38    26    1
   103    38    27    2
   104    15    27    1
   105    15    83    1
   106    26    99    1
   107    26    98    1
   108    27   100    1
