@<TRIPOS>MOLECULE
YXJDFQJKERBOBM-TXICZTDVSA-L	6045551	-1139.3075177612793
 23 23 0 0 0
SMALL
MULLIKEN NwChem

@<TRIPOS>ATOM
      1 C           1.1897    2.7137   -1.1395 C.3     1  LIG1       -0.040000000000000036
      2 C           0.7411    1.3285   -0.7137 C.3     1  LIG1       0.07000000000000028
      3 C           1.3788    0.9202    0.6335 C.3     1  LIG1       0.040000000000000036
      4 C           1.6568   -0.6202    0.4344 C.3     1  LIG1       0.08000000000000007
      5 C           0.9682   -0.9429   -0.9355 C.3     1  LIG1       0.3200000000000003
      6 O           0.8543    3.6584   -0.1158 O.3     1  LIG1      -0.6999999999999993
      7 O           0.5751    1.3014    1.7319 O.3     1  LIG1      -0.7200000000000006
      8 O           1.3342   -1.4618    1.5001 O.3     1  LIG1      -0.7200000000000006
      9 O          -2.2129    0.3342   -0.6552 O.2     1  LIG1      -0.7400000000000002
     10 O          -2.5772   -2.1853   -0.0239 O.3     1  LIG1      -0.7300000000000004
     11 O          -1.1041   -0.6403    1.4547 O.3     1  LIG1      -0.8000000000000007
     12 O           1.1266    0.3223   -1.6527 O.3     1  LIG1      -0.5600000000000005
     13 O          -0.2976   -1.4546   -0.8971 O.3     1  LIG1      -0.6500000000000004
     14 P          -1.7308   -0.9349    0.0328 P.3     1  LIG1       1.0500000000000007
     15 H           0.7063    3.0178   -2.0813 H       1  LIG1          0.14
     16 H           2.2834    2.7163   -1.3121 H       1  LIG1          0.13
     17 H          -0.3544    1.3243   -0.6040 H       1  LIG1       0.16000000000000003
     18 H           2.3415    1.4413    0.7665 H       1  LIG1          0.14
     19 H           2.7395   -0.7261    0.2551 H       1  LIG1          0.14
     20 H           1.5828   -1.6473   -1.5218 H       1  LIG1          0.12
     21 H           0.5608    3.1217    0.6498 H       1  LIG1       0.42000000000000004
     22 H          -0.2285    0.6650    1.6790 H       1  LIG1       0.43000000000000005
     23 H           0.3322   -1.3321    1.6019 H       1  LIG1       0.43000000000000005
@<TRIPOS>BOND
     1    15     1    1
     2    12     5    1
     3    12     2    1
     4    20     5    1
     5    16     1    1
     6     1     2    1
     7     1     6    1
     8     5    13    1
     9     5     4    1
    10    13    14    1
    11     2    17    1
    12     2     3    1
    13     9    14    2
    14     6    21    1
    15    10    14    1
    16    14    11    1
    17    19     4    1
    18     4     3    1
    19     4     8    1
    20     3    18    1
    21     3     7    1
    22     8    23    1
    23    22     7    1
