@<TRIPOS>MOLECULE
YXWOAJXNVLXPMU-ZXXMMSQZSA-J	11083888	-1820.5991649157895
 30 30 0 0 0
SMALL
MULLIKEN NwChem

@<TRIPOS>ATOM
      1 C           2.2944   -0.2081    0.4167 C.3     1  LIG1       -0.04999999999999982
      2 C          -2.2115    0.6079    1.7585 C.3     1  LIG1       -0.08000000000000007
      3 C           0.7785   -0.4980    0.4929 C.3     1  LIG1       0.1200000000000001
      4 C           0.0469   -0.8763   -0.8014 C.3     1  LIG1       0.11000000000000032
      5 C          -1.4140   -0.6083   -0.4003 C.3     1  LIG1       0.11000000000000032
      6 C          -1.3256    0.6895    0.4859 C.3     1  LIG1       0.5099999999999998
      7 O          -1.6791   -0.3386    2.7090 O.3     1  LIG1      -0.6999999999999993
      8 O           0.2907   -2.1998   -1.2144 O.3     1  LIG1        -0.75
      9 O          -2.3138   -0.5183   -1.4763 O.3     1  LIG1        -0.75
     10 O           4.5904   -3.2991    0.0871 O.3     1  LIG1      -0.7699999999999996
     11 O           5.0073   -0.9701   -1.0099 O.3     1  LIG1      -0.7899999999999991
     12 O           2.9130   -2.3441   -1.6773 O.2     1  LIG1      -0.7899999999999991
     13 O          -3.4403    3.3098    0.9108 O.3     1  LIG1      -0.7699999999999996
     14 O          -4.0133    1.3907   -0.7366 O.3     1  LIG1      -0.8000000000000007
     15 O          -2.8590    3.5661   -1.6113 O.2     1  LIG1        -0.75
     16 O           3.0651   -1.3478    0.7047 O.3     1  LIG1      -0.6400000000000006
     17 O           0.0607    0.6611    0.9989 O.3     1  LIG1      -0.5999999999999996
     18 O          -1.5163    1.8631   -0.2119 O.3     1  LIG1      -0.6899999999999995
     19 P           4.0037   -2.0602   -0.6015 P.3     1  LIG1       0.9299999999999997
     20 P          -3.1232    2.6352   -0.4316 P.3     1  LIG1           1.0
     21 H           2.4952    0.5775    1.1752 H       1  LIG1          0.12
     22 H           2.5495    0.2242   -0.5620 H       1  LIG1          0.13
     23 H          -2.2781    1.6147    2.1865 H       1  LIG1          0.13
     24 H          -3.2186    0.2988    1.4677 H       1  LIG1       0.15000000000000002
     25 H           0.6610   -1.3411    1.1966 H       1  LIG1          0.12
     26 H           0.3127   -0.1406   -1.5828 H       1  LIG1       0.10999999999999999
     27 H          -1.6952   -1.4427    0.2765 H       1  LIG1       0.09999999999999998
     28 H          -0.7210   -0.2090    2.5605 H       1  LIG1       0.43000000000000005
     29 H           1.2980   -2.2834   -1.3497 H       1  LIG1       0.43999999999999995
     30 H          -2.9708    0.2223   -1.2598 H       1  LIG1       0.43000000000000005
@<TRIPOS>BOND
     1    12    19    2
     2    15    20    2
     3    26     4    1
     4     9    30    1
     5     9     5    1
     6    29     8    1
     7     8     4    1
     8    11    19    1
     9     4     5    1
    10     4     3    1
    11    14    20    1
    12    19    10    1
    13    19    16    1
    14    22     1    1
    15    20    18    1
    16    20    13    1
    17     5    27    1
    18     5     6    1
    19    18     6    1
    20     1     3    1
    21     1    16    1
    22     1    21    1
    23     6    17    1
    24     6     2    1
    25     3    17    1
    26     3    25    1
    27    24     2    1
    28     2    23    1
    29     2     7    1
    30    28     7    1
