@<TRIPOS>MOLECULE
YYDWYJJLVYDJLV-UHFFFAOYSA-N	6045554	-253.03075571579168
 7 6 0 0 0
SMALL
MULLIKEN NwChem

@<TRIPOS>ATOM
      1 C           0.4881   -0.4444   -0.5947 C.3     1  LIG1       -0.040000000000000036
      2 C          -0.0333   -0.4579    0.8289 C.2     1  LIG1       0.2400000000000002
      3 F           0.0708    0.6722   -1.2737 F       1  LIG1      -0.3100000000000005
      4 O          -0.7282    0.4020    1.3107 O.2     1  LIG1      -0.4299999999999997
      5 H           0.1385   -1.3542   -1.1086 H       1  LIG1       0.19999999999999996
      6 H           1.5889   -0.4838   -0.5687 H       1  LIG1       0.18999999999999995
      7 H           0.2906   -1.3556    1.4064 H       1  LIG1       0.15000000000000002
@<TRIPOS>BOND
     1     3     1    1
     2     5     1    1
     3     1     6    1
     4     1     2    1
     5     2     4    2
     6     2     7    1
