@<TRIPOS>MOLECULE
YYGNTYWPHWGJRM-AAJYLUCBSA-N	6045555	-1172.638836740322
 80 79 0 0 0
SMALL
MULLIKEN NwChem

@<TRIPOS>ATOM
      1 C          -1.8491    3.7272   -2.7589 C.3     1  LIG1      -0.5300000000000002
      2 C          -1.5749    4.2543   -0.3014 C.3     1  LIG1      -0.5300000000000002
      3 C           3.7877   -0.7502    2.2770 C.3     1  LIG1      -0.5300000000000002
      4 C           2.4610   -2.6076    3.3681 C.3     1  LIG1      -0.5300000000000002
      5 C          -1.3378    1.3736    3.6096 C.3     1  LIG1        -0.54
      6 C           3.2795    1.2373   -1.9270 C.3     1  LIG1        -0.54
      7 C          -4.5672   -1.2579    0.0800 C.3     1  LIG1      -0.5300000000000002
      8 C           1.4388   -3.5850   -2.8062 C.3     1  LIG1        -0.54
      9 C           1.0894    2.2597    1.9042 C.3     1  LIG1      -0.3200000000000003
     10 C           1.9695    2.4056    0.6478 C.3     1  LIG1      -0.3200000000000003
     11 C          -3.4859    1.1878   -1.8570 C.3     1  LIG1      -0.3200000000000003
     12 C           1.8448   -3.6478    0.4603 C.3     1  LIG1      -0.3200000000000003
     13 C          -2.2123   -1.2701    2.0920 C.3     1  LIG1      -0.3099999999999996
     14 C           0.9960   -0.5344   -3.1414 C.3     1  LIG1      -0.3099999999999996
     15 C          -2.8293    2.2169   -0.9765 C.2     1  LIG1      -0.16999999999999993
     16 C           2.6431   -2.4322    0.8472 C.2     1  LIG1      -0.17999999999999972
     17 C           0.5973    0.8430    2.0915 C.2     1  LIG1      -0.1900000000000004
     18 C           1.2547    1.9473   -0.6027 C.2     1  LIG1      -0.20000000000000018
     19 C          -2.9441   -0.2494   -1.6321 C.3     1  LIG1      -0.34999999999999964
     20 C           0.5944   -3.3197   -0.3993 C.3     1  LIG1      -0.34999999999999964
     21 C          -0.8721   -1.0169    2.8232 C.3     1  LIG1      -0.3600000000000003
     22 C           0.9125    0.9855   -2.8622 C.3     1  LIG1      -0.3600000000000003
     23 C          -2.1675   -0.7994    0.6560 C.2     1  LIG1      -0.20000000000000018
     24 C           0.7179   -1.3532   -1.9031 C.2     1  LIG1      -0.1900000000000004
     25 C          -2.1404    3.3117   -1.3387 C.2     1  LIG1      0.16999999999999993
     26 C           2.9326   -1.9807    2.0785 C.2     1  LIG1      0.17999999999999972
     27 C          -0.4591    0.4398    2.8137 C.2     1  LIG1      0.16999999999999993
     28 C           1.7975    1.4371   -1.7187 C.2     1  LIG1      0.16999999999999993
     29 C          -3.1696   -0.7851   -0.2328 C.2     1  LIG1      0.16999999999999993
     30 C           0.9093   -2.6687   -1.7301 C.2     1  LIG1      0.16999999999999993
     31 H          -0.7627    3.7489   -2.9261 H       1  LIG1       0.16000000000000003
     32 H          -2.2165    4.7447   -2.9495 H       1  LIG1       0.16000000000000003
     33 H          -2.2906    3.0650   -3.5064 H       1  LIG1       0.16000000000000003
     34 H          -1.7480    3.8962    0.7190 H       1  LIG1       0.16000000000000003
     35 H          -0.4930    4.3859   -0.4395 H       1  LIG1       0.16000000000000003
     36 H          -2.0256    5.2528   -0.3925 H       1  LIG1       0.16000000000000003
     37 H           3.2504    0.0078    2.8626 H       1  LIG1       0.16000000000000003
     38 H           4.7008   -0.9946    2.8402 H       1  LIG1       0.15000000000000002
     39 H           4.0858   -0.2967    1.3255 H       1  LIG1       0.16000000000000003
     40 H           1.8347   -3.4906    3.2213 H       1  LIG1       0.16000000000000003
     41 H           3.3142   -2.9001    3.9946 H       1  LIG1       0.16000000000000003
     42 H           1.8808   -1.8792    3.9485 H       1  LIG1       0.16000000000000003
     43 H          -0.9756    2.4038    3.6094 H       1  LIG1       0.16000000000000003
     44 H          -2.3647    1.3785    3.2219 H       1  LIG1       0.17000000000000004
     45 H          -1.4003    1.0433    4.6544 H       1  LIG1       0.16000000000000003
     46 H           3.5259    0.1702   -2.0198 H       1  LIG1       0.17000000000000004
     47 H           3.6033    1.7152   -2.8619 H       1  LIG1       0.16000000000000003
     48 H           3.8831    1.6499   -1.1155 H       1  LIG1       0.16000000000000003
     49 H          -4.6674   -1.6344    1.1028 H       1  LIG1       0.16000000000000003
     50 H          -5.2996   -0.4469   -0.0517 H       1  LIG1       0.16000000000000003
     51 H          -4.8684   -2.0622   -0.6076 H       1  LIG1       0.16000000000000003
     52 H           2.3025   -4.1637   -2.4517 H       1  LIG1       0.16000000000000003
     53 H           0.6716   -4.3172   -3.0966 H       1  LIG1       0.16000000000000003
     54 H           1.7438   -3.0476   -3.7088 H       1  LIG1       0.16000000000000003
     55 H           0.2409    2.9510    1.8233 H       1  LIG1       0.16000000000000003
     56 H           1.6671    2.5912    2.7803 H       1  LIG1       0.15000000000000002
     57 H           2.2679    3.4609    0.5535 H       1  LIG1       0.15000000000000002
     58 H           2.8950    1.8374    0.7959 H       1  LIG1       0.16000000000000003
     59 H          -4.5692    1.1905   -1.6634 H       1  LIG1       0.15000000000000002
     60 H          -3.3670    1.4377   -2.9170 H       1  LIG1       0.15000000000000002
     61 H           1.5170   -4.2067    1.3430 H       1  LIG1       0.15000000000000002
     62 H           2.4938   -4.3320   -0.1074 H       1  LIG1       0.15000000000000002
     63 H          -3.0260   -0.7736    2.6379 H       1  LIG1       0.16000000000000003
     64 H          -2.4378   -2.3453    2.1415 H       1  LIG1       0.15000000000000002
     65 H           0.2772   -0.7791   -3.9363 H       1  LIG1       0.15000000000000002
     66 H           1.9846   -0.7787   -3.5521 H       1  LIG1       0.16000000000000003
     67 H          -2.9382    2.0271    0.0916 H       1  LIG1          0.12
     68 H           3.0268   -1.8608    0.0019 H       1  LIG1          0.13
     69 H           1.1591    0.0795    1.5543 H       1  LIG1          0.13
     70 H           0.1692    2.0347   -0.5705 H       1  LIG1          0.14
     71 H          -3.4282   -0.9153   -2.3612 H       1  LIG1          0.14
     72 H          -1.8739   -0.2586   -1.8623 H       1  LIG1       0.16000000000000003
     73 H          -0.0695   -2.6694    0.1805 H       1  LIG1       0.16000000000000003
     74 H           0.0460   -4.2577   -0.5700 H       1  LIG1          0.14
     75 H          -0.9649   -1.3788    3.8575 H       1  LIG1          0.14
     76 H          -0.0904   -1.6175    2.3437 H       1  LIG1       0.16000000000000003
     77 H          -0.1279    1.2494   -2.6395 H       1  LIG1       0.16000000000000003
     78 H           1.1867    1.5218   -3.7831 H       1  LIG1          0.14
     79 H          -1.2071   -0.4054    0.3312 H       1  LIG1          0.14
     80 H           0.3344   -0.7888   -1.0565 H       1  LIG1           0.14
@<TRIPOS>BOND
     1    65    14    1
     2    78    22    1
     3    54     8    1
     4    66    14    1
     5    33     1    1
     6    14    22    1
     7    14    24    1
     8    53     8    1
     9    32     1    1
    10    31     1    1
    11    60    11    1
    12    22    77    1
    13    22    28    1
    14    47     6    1
    15     8    52    1
    16     8    30    1
    17     1    25    1
    18    71    19    1
    19    46     6    1
    20     6    28    1
    21     6    48    1
    22    24    30    2
    23    24    80    1
    24    72    19    1
    25    11    59    1
    26    11    19    1
    27    11    15    1
    28    30    20    1
    29    28    18    2
    30    19    29    1
    31    25    15    2
    32    25     2    1
    33    15    67    1
    34    51     7    1
    35    18    70    1
    36    18    10    1
    37    74    20    1
    38    35     2    1
    39    20    73    1
    40    20    12    1
    41    36     2    1
    42     2    34    1
    43    29     7    1
    44    29    23    2
    45    62    12    1
    46    50     7    1
    47    68    16    1
    48     7    49    1
    49    79    23    1
    50    12    16    1
    51    12    61    1
    52    57    10    1
    53    10    58    1
    54    10     9    1
    55    23    13    1
    56    16    26    2
    57    39     3    1
    58    69    17    1
    59    55     9    1
    60     9    17    1
    61     9    56    1
    62    26     3    1
    63    26     4    1
    64    17    27    2
    65    13    64    1
    66    13    63    1
    67    13    21    1
    68     3    38    1
    69     3    37    1
    70    76    21    1
    71    27    21    1
    72    27     5    1
    73    21    75    1
    74    40     4    1
    75    44     5    1
    76     4    42    1
    77     4    41    1
    78    43     5    1
    79     5    45    1
