@<TRIPOS>MOLECULE
YZKFNNQAEBNCEN-KTKRTIGZSA-L	11083885	-1690.3332843584374
 66 65 0 0 0
SMALL
MULLIKEN NwChem

@<TRIPOS>ATOM
      1 C         -11.8939   -1.0603    1.2280 C.3     1  LIG1      -0.45999999999999996
      2 C         -11.8531   -0.2332   -0.0643 C.3     1  LIG1        -0.25
      3 C         -10.8801   -0.7689   -1.1385 C.3     1  LIG1      -0.2599999999999998
      4 C          -9.4562   -0.1880   -1.0904 C.3     1  LIG1      -0.2599999999999998
      5 C          -8.6718   -0.4434    0.2027 C.3     1  LIG1      -0.2599999999999998
      6 C          -7.2259    0.0607    0.1333 C.3     1  LIG1        -0.25
      7 C          -6.4375   -0.1733    1.4262 C.3     1  LIG1      -0.2599999999999998
      8 C          -5.0067    0.4095    1.3812 C.3     1  LIG1      -0.3099999999999996
      9 C          -4.9853    1.9134    1.3123 C.2     1  LIG1      -0.1299999999999999
     10 C          -4.7126    2.6801    0.2376 C.2     1  LIG1      -0.1200000000000001
     11 C          -4.3200    2.2279   -1.1432 C.3     1  LIG1      -0.3099999999999996
     12 C          -2.8598    2.5806   -1.5040 C.3     1  LIG1      -0.2599999999999998
     13 C          -1.8191    1.8106   -0.6835 C.3     1  LIG1        -0.25
     14 C          -0.3765    2.2228   -1.0057 C.3     1  LIG1      -0.2599999999999998
     15 C           0.6986    1.4931   -0.1863 C.3     1  LIG1      -0.2599999999999998
     16 C           0.8326   -0.0022   -0.5060 C.3     1  LIG1      -0.2599999999999998
     17 C           1.9675   -0.6773    0.2677 C.3     1  LIG1       -0.3700000000000001
     18 C           5.6632   -0.5690    0.3334 C.3     1  LIG1       -0.1900000000000004
     19 C           7.4261   -1.9357   -0.8860 C.3     1  LIG1       -0.11000000000000032
     20 C           5.9451   -1.7332   -0.5944 C.2     1  LIG1       0.41999999999999993
     21 C           3.3558   -0.2089   -0.1637 C.2     1  LIG1       0.6500000000000004
     22 O           5.0529   -2.4495   -1.0392 O.2     1  LIG1      -0.5199999999999996
     23 O           3.5600    0.4329   -1.1809 O.2     1  LIG1      -0.5500000000000007
     24 O          10.0302   -0.0823    1.2113 O.3     1  LIG1        -0.75
     25 O           7.8438   -1.1674    2.1286 O.3     1  LIG1      -0.7699999999999996
     26 O           9.5908   -2.6469    0.9237 O.2     1  LIG1      -0.7699999999999996
     27 O           4.2635   -0.5906    0.7272 O.3     1  LIG1      -0.46000000000000085
     28 O           8.2232   -0.8958   -0.4338 O.3     1  LIG1      -0.6500000000000004
     29 P           9.0374   -1.2343    1.1457 P.3     1  LIG1       0.9199999999999999
     30 H         -10.9144   -1.1122    1.7124 H       1  LIG1       0.15000000000000002
     31 H         -12.6024   -0.6350    1.9493 H       1  LIG1          0.14
     32 H         -12.2102   -2.0899    1.0174 H       1  LIG1          0.14
     33 H         -11.5937    0.8090    0.1712 H       1  LIG1          0.13
     34 H         -12.8689   -0.2024   -0.4818 H       1  LIG1          0.13
     35 H         -10.8299   -1.8656   -1.0651 H       1  LIG1          0.13
     36 H         -11.2938   -0.5534   -2.1332 H       1  LIG1          0.13
     37 H          -9.5092    0.8975   -1.2632 H       1  LIG1          0.13
     38 H          -8.8848   -0.5991   -1.9353 H       1  LIG1          0.13
     39 H          -9.1764    0.0496    1.0450 H       1  LIG1          0.14
     40 H          -8.6785   -1.5207    0.4291 H       1  LIG1          0.13
     41 H          -7.2211    1.1343   -0.0982 H       1  LIG1          0.13
     42 H          -6.7056   -0.4330   -0.7013 H       1  LIG1          0.13
     43 H          -6.9829    0.2764    2.2699 H       1  LIG1          0.13
     44 H          -6.3850   -1.2532    1.6320 H       1  LIG1          0.13
     45 H          -4.4700    0.0809    2.2833 H       1  LIG1          0.14
     46 H          -4.4686   -0.0295    0.5325 H       1  LIG1       0.15000000000000002
     47 H          -5.2527    2.4181    2.2427 H       1  LIG1          0.13
     48 H          -4.7355    3.7640    0.3698 H       1  LIG1          0.13
     49 H          -4.4665    1.1468   -1.2583 H       1  LIG1       0.15000000000000002
     50 H          -4.9869    2.7056   -1.8793 H       1  LIG1          0.14
     51 H          -2.7075    3.6618   -1.3654 H       1  LIG1          0.13
     52 H          -2.6973    2.3835   -2.5742 H       1  LIG1          0.13
     53 H          -2.0141    1.9675    0.3866 H       1  LIG1          0.13
     54 H          -1.9518    0.7344   -0.8630 H       1  LIG1          0.14
     55 H          -0.2812    3.3069   -0.8408 H       1  LIG1          0.13
     56 H          -0.1816    2.0607   -2.0766 H       1  LIG1          0.13
     57 H           0.4870    1.6221    0.8869 H       1  LIG1          0.13
     58 H           1.6703    1.9606   -0.3773 H       1  LIG1          0.13
     59 H           1.0307   -0.1156   -1.5792 H       1  LIG1          0.14
     60 H          -0.1104   -0.5238   -0.2895 H       1  LIG1       0.15000000000000002
     61 H           1.8634   -0.5274    1.3498 H       1  LIG1       0.18000000000000005
     62 H           1.9599   -1.7630    0.1068 H       1  LIG1       0.18999999999999995
     63 H           5.9141    0.3721   -0.1627 H       1  LIG1       0.18999999999999995
     64 H           6.3105   -0.6812    1.2367 H       1  LIG1          0.25
     65 H           7.5058   -2.0735   -1.9850 H       1  LIG1       0.16000000000000003
     66 H           7.7270   -2.8990   -0.4309 H       1  LIG1       0.17000000000000004
@<TRIPOS>BOND
     1    52    12    1
     2    36     3    1
     3    56    14    1
     4    65    19    1
     5    38     4    1
     6    50    11    1
     7    59    16    1
     8    12    51    1
     9    12    11    1
    10    12    13    1
    11    37     4    1
    12    49    11    1
    13    23    21    2
    14    11    10    1
    15     3     4    1
    16     3    35    1
    17     3     2    1
    18     4     5    1
    19    22    20    2
    20    14    55    1
    21    14    13    1
    22    14    15    1
    23    19    20    1
    24    19    28    1
    25    19    66    1
    26    54    13    1
    27    42     6    1
    28    13    53    1
    29    20    18    1
    30    16    60    1
    31    16    15    1
    32    16    17    1
    33    34     2    1
    34    28    29    1
    35    58    15    1
    36    15    57    1
    37    21    17    1
    38    21    27    1
    39    63    18    1
    40    41     6    1
    41     2    33    1
    42     2     1    1
    43    62    17    1
    44     6     5    1
    45     6     7    1
    46     5    40    1
    47     5    39    1
    48    10    48    1
    49    10     9    2
    50    17    61    1
    51    18    27    1
    52    18    64    1
    53    46     8    1
    54    26    29    2
    55    32     1    1
    56    29    24    1
    57    29    25    1
    58     1    30    1
    59     1    31    1
    60     9     8    1
    61     9    47    1
    62     8     7    1
    63     8    45    1
    64     7    44    1
    65     7    43    1
