@<TRIPOS>MOLECULE
ZAGWHOPYPMUKOK-FRICUITQSA-N	6045558	-1668.5363079486922
 96 96 0 0 0
SMALL
MULLIKEN NwChem

@<TRIPOS>ATOM
      1 C           2.3995   -5.0959   -0.2593 C.3     1  LIG1            -0.54
      2 C           3.3760   -4.6209    2.0433 C.3     1  LIG1        -0.54
      3 C           5.6783   -0.7356   -2.3121 C.3     1  LIG1        -0.54
      4 C           2.8052    0.4675    3.2642 C.3     1  LIG1        -0.54
      5 C          -1.0553   -3.9313    0.9632 C.3     1  LIG1        -0.54
      6 C           1.1337   -0.9052   -2.6179 C.3     1  LIG1      -0.5499999999999998
      7 C           0.9231    3.7676   -0.4381 C.3     1  LIG1        -0.54
      8 C          -5.6679    5.5771    0.5204 C.3     1  LIG1       -0.23000000000000043
      9 C           4.9728   -3.9617   -1.4769 C.3     1  LIG1      -0.3099999999999996
     10 C           4.2221    0.3402    0.2784 C.3     1  LIG1      -0.3200000000000003
     11 C           0.4381   -1.4738    2.5869 C.3     1  LIG1      -0.33999999999999986
     12 C          -1.3220   -2.4440   -1.7010 C.3     1  LIG1      -0.3200000000000003
     13 C           0.3669    2.0538   -3.3732 C.3     1  LIG1      -0.2999999999999998
     14 C           4.7013   -4.1189    0.0010 C.2     1  LIG1      -0.1900000000000004
     15 C           4.1755   -2.7859   -2.1061 C.3     1  LIG1      -0.33999999999999986
     16 C           3.9798   -0.9557   -0.4478 C.2     1  LIG1      -0.16999999999999993
     17 C           2.8970    0.9940    0.7622 C.3     1  LIG1      -0.33999999999999986
     18 C           1.2068   -0.5997    1.6292 C.2     1  LIG1      -0.17999999999999972
     19 C          -1.0372   -1.6772    2.1507 C.3     1  LIG1      -0.34999999999999964
     20 C          -1.3173   -1.7954   -0.3333 C.2     1  LIG1      -0.17999999999999972
     21 C          -1.3602   -1.4486   -2.8813 C.3     1  LIG1      -0.33999999999999986
     22 C          -0.5517    0.8677   -3.2263 C.2     1  LIG1      -0.17999999999999972
     23 C          -0.1996    3.3328   -2.6996 C.3     1  LIG1      -0.33999999999999986
     24 C          -1.2856    2.5491   -0.6283 C.2     1  LIG1      -0.20000000000000018
     25 C          -1.5082    2.1758    0.8200 C.3     1  LIG1      -0.4299999999999997
     26 C          -3.7160    1.0381    1.3621 C.ar    1  LIG1      -0.2999999999999998
     27 C          -5.7121    2.3348    1.7703 C.ar    1  LIG1       -0.2599999999999998
     28 C           3.5753   -4.5987    0.5483 C.2     1  LIG1      0.17999999999999972
     29 C           4.5715   -1.4267   -1.5561 C.2     1  LIG1      0.16999999999999993
     30 C           2.2217    0.2388    1.8909 C.2     1  LIG1      0.16000000000000014
     31 C          -1.1678   -2.4289    0.8412 C.2     1  LIG1      0.16000000000000014
     32 C          -0.2579   -0.4011   -2.9033 C.2     1  LIG1      0.17999999999999972
     33 C          -0.2591    3.2091   -1.1879 C.2     1  LIG1      0.17999999999999972
     34 C          -2.9849    2.2116    1.1553 C.ar    1  LIG1       0.11000000000000032
     35 C          -5.0734    1.0991    1.6826 C.ar    1  LIG1       0.33999999999999986
     36 C          -5.0049    3.5122    1.5200 C.ar    1  LIG1       0.33000000000000007
     37 C          -3.6334    3.4540    1.2068 C.ar    1  LIG1       0.23000000000000043
     38 O          -5.8315   -0.0241    1.9019 O.3     1  LIG1      -0.6899999999999995
     39 O          -2.9447    4.6299    0.9852 O.3     1  LIG1      -0.6899999999999995
     40 O          -5.6978    4.6891    1.6424 O.3     1  LIG1      -0.5500000000000007
     41 H           1.9967   -6.0280    0.1599 H       1  LIG1       0.15000000000000002
     42 H           2.6491   -5.2816   -1.3086 H       1  LIG1       0.16000000000000003
     43 H           1.5794   -4.3631   -0.2384 H       1  LIG1       0.18000000000000005
     44 H           4.2376   -4.2052    2.5779 H       1  LIG1       0.16000000000000003
     45 H           2.4902   -4.0335    2.3278 H       1  LIG1       0.18000000000000005
     46 H           3.2039   -5.6433    2.4092 H       1  LIG1       0.16000000000000003
     47 H           5.9939    0.2101   -1.8637 H       1  LIG1       0.16000000000000003
     48 H           6.5633   -1.3845   -2.3696 H       1  LIG1       0.16000000000000003
     49 H           5.3773   -0.5376   -3.3515 H       1  LIG1       0.16000000000000003
     50 H           2.7339    1.5274    3.5461 H       1  LIG1       0.16000000000000003
     51 H           2.3117   -0.1224    4.0407 H       1  LIG1       0.16000000000000003
     52 H           3.8728    0.2116    3.2843 H       1  LIG1       0.17000000000000004
     53 H          -0.9844   -4.4373   -0.0036 H       1  LIG1       0.16000000000000003
     54 H          -0.1784   -4.2184    1.5563 H       1  LIG1       0.17000000000000004
     55 H          -1.9312   -4.3373    1.4907 H       1  LIG1       0.16000000000000003
     56 H           1.3984   -1.7203   -3.3052 H       1  LIG1       0.16000000000000003
     57 H           1.9035   -0.1365   -2.7061 H       1  LIG1       0.16000000000000003
     58 H           1.2087   -1.3190   -1.6057 H       1  LIG1       0.18000000000000005
     59 H           0.9720    4.8594   -0.5521 H       1  LIG1       0.16000000000000003
     60 H           0.9122    3.5332    0.6291 H       1  LIG1       0.17000000000000004
     61 H           1.8600    3.3721   -0.8533 H       1  LIG1       0.17000000000000004
     62 H          -4.6986    6.0717    0.4242 H       1  LIG1       0.17000000000000004
     63 H          -5.8966    5.0381   -0.4098 H       1  LIG1       0.16000000000000003
     64 H          -6.4502    6.3179    0.7070 H       1  LIG1       0.17000000000000004
     65 H           6.0460   -3.8028   -1.6368 H       1  LIG1          0.14
     66 H           4.7151   -4.8815   -2.0191 H       1  LIG1       0.15000000000000002
     67 H           4.8676    0.1642    1.1528 H       1  LIG1       0.15000000000000002
     68 H           4.7562    1.0566   -0.3561 H       1  LIG1       0.15000000000000002
     69 H           0.9215   -2.4596    2.6657 H       1  LIG1       0.17000000000000004
     70 H           0.4450   -1.0552    3.5987 H       1  LIG1       0.15000000000000002
     71 H          -0.4337   -3.0840   -1.8054 H       1  LIG1       0.16000000000000003
     72 H          -2.1809   -3.1219   -1.8032 H       1  LIG1       0.15000000000000002
     73 H           1.3644    1.8438   -2.9729 H       1  LIG1       0.16000000000000003
     74 H           0.5027    2.2736   -4.4431 H       1  LIG1       0.15000000000000002
     75 H           5.4720   -3.7447    0.6730 H       1  LIG1          0.12
     76 H           4.3202   -2.8031   -3.1953 H       1  LIG1          0.13
     77 H           3.1100   -2.9654   -1.9274 H       1  LIG1       0.16000000000000003
     78 H           3.2143   -1.5835    0.0076 H       1  LIG1          0.12
     79 H           3.1146    2.0200    1.0908 H       1  LIG1          0.14
     80 H           2.2147    1.0728   -0.0925 H       1  LIG1       0.15000000000000002
     81 H           0.8992   -0.6895    0.5902 H       1  LIG1          0.14
     82 H          -1.5610   -2.2271    2.9456 H       1  LIG1          0.14
     83 H          -1.5105   -0.6925    2.0869 H       1  LIG1       0.16000000000000003
     84 H          -1.4026   -0.7089   -0.3290 H       1  LIG1          0.14
     85 H          -1.2989   -2.0447   -3.8060 H       1  LIG1          0.14
     86 H          -2.3358   -0.9464   -2.9042 H       1  LIG1          0.14
     87 H          -1.5976    1.0942   -3.4434 H       1  LIG1          0.12
     88 H           0.4244    4.1898   -2.9844 H       1  LIG1          0.14
     89 H          -1.2017    3.5235   -3.1048 H       1  LIG1       0.15000000000000002
     90 H          -2.0673    2.1838   -1.2928 H       1  LIG1          0.14
     91 H          -1.1069    1.1726    1.0029 H       1  LIG1       0.18999999999999995
     92 H          -0.9570    2.8435    1.4928 H       1  LIG1       0.17000000000000004
     93 H          -3.2276    0.0737    1.2514 H       1  LIG1       0.17000000000000004
     94 H          -6.7683    2.3904    2.0064 H       1  LIG1       0.15000000000000002
     95 H          -5.2642   -0.8031    1.7923 H       1  LIG1       0.44999999999999996
     96 H          -2.2482    4.4506    0.3279 H       1  LIG1       0.43000000000000005
@<TRIPOS>BOND
     1    74    13    1
     2    85    21    1
     3    87    22    1
     4    13    22    1
     5    13    73    1
     6    13    23    1
     7    49     3    1
     8    56     6    1
     9    22    32    2
    10    76    15    1
    11    89    23    1
    12    88    23    1
    13    86    21    1
    14    32    21    1
    15    32     6    1
    16    21    12    1
    17    57     6    1
    18    23    33    1
    19     6    58    1
    20    48     3    1
    21     3    47    1
    22     3    29    1
    23    15    77    1
    24    15    29    1
    25    15     9    1
    26    66     9    1
    27    71    12    1
    28    72    12    1
    29    12    20    1
    30    65     9    1
    31    29    16    2
    32     9    14    1
    33    42     1    1
    34    90    24    1
    35    33    24    2
    36    33     7    1
    37    61     7    1
    38    24    25    1
    39    59     7    1
    40    16    78    1
    41    16    10    1
    42     7    60    1
    43    63     8    1
    44    68    10    1
    45    20    84    1
    46    20    31    2
    47     1    43    1
    48     1    41    1
    49     1    28    1
    50    80    17    1
    51    53     5    1
    52    14    28    2
    53    14    75    1
    54    10    17    1
    55    10    67    1
    56    96    39    1
    57    62     8    1
    58     8    64    1
    59     8    40    1
    60    28     2    1
    61    81    18    1
    62    17    79    1
    63    17    30    1
    64    25    91    1
    65    25    34    1
    66    25    92    1
    67    31     5    1
    68    31    19    1
    69     5    55    1
    70     5    54    1
    71    39    37    1
    72    34    37   ar
    73    34    26   ar
    74    37    36   ar
    75    93    26    1
    76    26    35   ar
    77    36    40    1
    78    36    27   ar
    79    18    30    2
    80    18    11    1
    81    35    27   ar
    82    35    38    1
    83    27    94    1
    84    95    38    1
    85    30     4    1
    86     2    45    1
    87     2    46    1
    88     2    44    1
    89    83    19    1
    90    19    11    1
    91    19    82    1
    92    11    69    1
    93    11    70    1
    94     4    52    1
    95     4    50    1
    96     4    51    1
