@<TRIPOS>MOLECULE
ZAQJHHRNXZUBTE-WUJLRWPWSA-N	6045560	-572.5137912651782
 20 19 0 0 0
SMALL
MULLIKEN NwChem

@<TRIPOS>ATOM
      1 C          -1.1902   -1.5603   -0.1472 C.3     1  LIG1       -0.11000000000000032
      2 C           0.9176    1.5125    0.6639 C.3     1  LIG1       -0.09999999999999964
      3 C          -0.8670   -0.5219   -1.2338 C.3     1  LIG1       0.11000000000000032
      4 C           1.1992    0.1561    0.0559 C.2     1  LIG1       0.3700000000000001
      5 C           0.6684   -0.1986   -1.3138 C.3     1  LIG1       0.05999999999999961
      6 O          -1.3117   -0.9094    1.1223 O.3     1  LIG1      -0.6600000000000001
      7 O           0.9867    1.4695    2.0691 O.3     1  LIG1      -0.6500000000000004
      8 O          -1.6403    0.6437   -1.0304 O.3     1  LIG1      -0.6699999999999999
      9 O           1.8343   -0.6805    0.6976 O.2     1  LIG1      -0.5099999999999998
     10 O           1.3410   -1.3215   -1.8314 O.3     1  LIG1      -0.6699999999999999
     11 H          -0.4451   -2.3618   -0.1378 H       1  LIG1       0.18000000000000005
     12 H          -2.1693   -2.0010   -0.3497 H       1  LIG1       0.18000000000000005
     13 H           1.6533    2.2107    0.2177 H       1  LIG1       0.18999999999999995
     14 H          -0.0712    1.8647    0.3586 H       1  LIG1       0.18999999999999995
     15 H          -1.1074   -0.9317   -2.2222 H       1  LIG1       0.17000000000000004
     16 H           0.7679    0.6630   -1.9901 H       1  LIG1       0.18000000000000005
     17 H          -0.4419   -0.8525    1.5462 H       1  LIG1       0.43000000000000005
     18 H           1.7149    0.8592    2.2842 H       1  LIG1       0.43000000000000005
     19 H          -1.8655    0.6351   -0.0808 H       1  LIG1       0.43000000000000005
     20 H           1.8516   -1.6950   -1.0877 H       1  LIG1       0.43000000000000005
@<TRIPOS>BOND
     1    15     3    1
     2    16     5    1
     3    10     5    1
     4    10    20    1
     5     5     3    1
     6     5     4    1
     7     3     8    1
     8     3     1    1
     9     8    19    1
    10    12     1    1
    11     1    11    1
    12     1     6    1
    13     4     2    1
    14     4     9    2
    15    13     2    1
    16    14     2    1
    17     2     7    1
    18     6    17    1
    19     7    18    1
