@<TRIPOS>MOLECULE
ZAQJHHRNXZUBTE-NQXXGFSBSA-N	6045559	-572.5164595115633
 20 19 0 0 0
SMALL
MULLIKEN NwChem

@<TRIPOS>ATOM
      1 C          -0.4610    1.9134    0.2462 C.3     1  LIG1       -0.07000000000000028
      2 C           0.9341   -1.6037    1.2174 C.3     1  LIG1       -0.08999999999999986
      3 C          -1.2032    0.5670    0.3600 C.3     1  LIG1       0.08999999999999986
      4 C           0.7447   -1.0257   -0.1738 C.2     1  LIG1       0.41000000000000014
      5 C          -0.6115   -0.4909   -0.6122 C.3     1  LIG1       0.05999999999999961
      6 O          -0.8684    2.5944   -0.9337 O.3     1  LIG1      -0.6699999999999999
      7 O           2.1404   -2.3060    1.3345 O.3     1  LIG1      -0.6600000000000001
      8 O          -2.5762    0.7552    0.0999 O.3     1  LIG1      -0.6699999999999999
      9 O           1.6884   -0.9972   -0.9528 O.2     1  LIG1         -0.5
     10 O          -0.5004    0.0481   -1.9230 O.3     1  LIG1      -0.6799999999999997
     11 H           0.6303    1.7612    0.2779 H       1  LIG1       0.16000000000000003
     12 H          -0.7408    2.5554    1.0862 H       1  LIG1       0.17000000000000004
     13 H           0.8811   -0.7585    1.9300 H       1  LIG1       0.19999999999999996
     14 H           0.0888   -2.2635    1.4596 H       1  LIG1       0.19999999999999996
     15 H          -1.1208    0.1771    1.3828 H       1  LIG1       0.17000000000000004
     16 H          -1.3129   -1.3414   -0.6136 H       1  LIG1       0.18999999999999995
     17 H          -0.6398    1.9907   -1.6673 H       1  LIG1       0.43000000000000005
     18 H           2.6922   -2.0264    0.5809 H       1  LIG1       0.43000000000000005
     19 H          -2.6106    1.4819   -0.5511 H       1  LIG1       0.42000000000000004
     20 H           0.3863   -0.2179   -2.2403 H       1  LIG1       0.43999999999999995
@<TRIPOS>BOND
     1    20    10    1
     2    10     5    1
     3    17     6    1
     4     9     4    2
     5     6     1    1
     6    16     5    1
     7     5     4    1
     8     5     3    1
     9    19     8    1
    10     4     2    1
    11     8     3    1
    12     1    11    1
    13     1     3    1
    14     1    12    1
    15     3    15    1
    16    18     7    1
    17     2     7    1
    18     2    14    1
    19     2    13    1
