@<TRIPOS>MOLECULE
ZARFDBYKHCOTRH-UHFFFAOYSA-M	6045561	-1124.596965741438
 33 33 0 0 0
SMALL
MULLIKEN NwChem

@<TRIPOS>ATOM
      1 C           2.0948    0.4397    1.3938 C.3     1  LIG1      -0.28000000000000025
      2 C           0.8902    1.1132    0.7005 C.3     1  LIG1      -0.28000000000000025
      3 C           2.2614   -1.0492    1.0306 C.3     1  LIG1      -0.29000000000000004
      4 C           1.1008    1.4573   -0.8026 C.3     1  LIG1      -0.2699999999999996
      5 C           1.4833   -2.0408    1.9436 C.3     1  LIG1       -0.34999999999999964
      6 C          -1.9228    1.8751   -0.9484 C.3     1  LIG1       -0.45999999999999996
      7 C           0.2734    0.6510   -1.8417 C.3     1  LIG1           0.0
      8 C          -1.2908    0.7003   -1.6967 C.3     1  LIG1       0.05999999999999961
      9 C           0.1321   -1.5452    2.4662 C.2     1  LIG1       0.5800000000000001
     10 C          -0.3812   -1.3742   -1.1409 C.2     1  LIG1       0.6399999999999997
     11 N           0.6121   -0.7618   -1.7433 N.am    1  LIG1      -0.5899999999999999
     12 N          -1.5952   -0.5900   -1.0726 N.am    1  LIG1      -0.6600000000000001
     13 O          -0.9560   -1.8428    1.7571 O.3     1  LIG1      -0.6400000000000006
     14 O           0.0543   -0.9061    3.5052 O.2     1  LIG1      -0.5500000000000007
     15 O          -0.3800   -2.5337   -0.6070 O.2     1  LIG1      -0.7300000000000004
     16 S          -1.9030    3.4694   -1.8898 S.3     1  LIG1      -0.16000000000000014
     17 H           1.9820    0.5411    2.4805 H       1  LIG1          0.13
     18 H           3.0058    0.9907    1.1162 H       1  LIG1          0.13
     19 H           0.0155    0.4686    0.8213 H       1  LIG1          0.14
     20 H           0.6542    2.0371    1.2469 H       1  LIG1          0.13
     21 H           1.9565   -1.1977   -0.0106 H       1  LIG1       0.18000000000000005
     22 H           3.3223   -1.3287    1.0976 H       1  LIG1          0.13
     23 H           0.9297    2.5350   -0.9540 H       1  LIG1          0.13
     24 H           2.1525    1.2848   -1.0664 H       1  LIG1          0.13
     25 H           1.3515   -2.9793    1.3966 H       1  LIG1       0.15000000000000002
     26 H           2.0727   -2.2337    2.8471 H       1  LIG1       0.16000000000000003
     27 H          -2.9906    1.6832   -0.7909 H       1  LIG1       0.19999999999999996
     28 H          -1.4675    2.0336    0.0310 H       1  LIG1       0.20999999999999996
     29 H           0.5443    1.0568   -2.8302 H       1  LIG1       0.10999999999999999
     30 H          -1.7199    0.7001   -2.7104 H       1  LIG1          0.14
     31 H          -1.9886   -0.5664   -0.1345 H       1  LIG1       0.32999999999999996
     32 H          -0.7260   -2.2565    0.8291 H       1  LIG1       0.45999999999999996
     33 H          -0.5726    3.5096   -2.1091 H       1  LIG1           0.13
@<TRIPOS>BOND
     1    29     7    1
     2    30     8    1
     3    33    16    1
     4    16     6    1
     5     7    11    1
     6     7     8    1
     7     7     4    1
     8    11    10   am
     9     8    12    1
    10     8     6    1
    11    10    12   am
    12    10    15    2
    13    12    31    1
    14    24     4    1
    15    23     4    1
    16     6    27    1
    17     6    28    1
    18     4     2    1
    19    21     3    1
    20     2    19    1
    21     2    20    1
    22     2     1    1
    23    32    13    1
    24     3    22    1
    25     3     1    1
    26     3     5    1
    27    18     1    1
    28     1    17    1
    29    25     5    1
    30    13     9    1
    31     5     9    1
    32     5    26    1
    33     9    14    2
