@<TRIPOS>MOLECULE
ZAWIXNGTTZTBKV-JMVOWJSSSA-F	11075298	-2954.0904435906486
 36 36 0 0 0
SMALL
MULLIKEN NwChem

@<TRIPOS>ATOM
      1 C           0.5637    1.2045   -0.6441 C.3     1  LIG1       0.09999999999999964
      2 C          -0.5905   -1.1788    0.6926 C.3     1  LIG1       0.05999999999999961
      3 C           1.5414    0.1064   -0.0105 C.3     1  LIG1       0.13999999999999968
      4 C          -0.9223    1.3272   -0.0941 C.3     1  LIG1       0.1200000000000001
      5 C           0.7102   -1.2724   -0.2140 C.3     1  LIG1       0.13999999999999968
      6 C          -1.6184   -0.0335    0.3002 C.3     1  LIG1       0.13999999999999968
      7 O           1.1404    2.5028   -0.5538 O.3     1  LIG1      -0.7400000000000002
      8 O          -0.2504   -1.0684    2.0796 O.3     1  LIG1      -0.7300000000000004
      9 O           4.1960    1.3518    1.3969 O.3     1  LIG1      -0.8000000000000007
     10 O           5.4029   -0.3726   -0.1124 O.3     1  LIG1      -0.8000000000000007
     11 O           4.7915    1.9167   -1.0804 O.2     1  LIG1      -0.8100000000000005
     12 O          -2.5273    4.5154   -0.3667 O.3     1  LIG1      -0.7899999999999991
     13 O          -0.5532    4.1937   -2.0085 O.3     1  LIG1      -0.8000000000000007
     14 O          -2.9570    3.5764   -2.7442 O.2     1  LIG1      -0.8000000000000007
     15 O           1.1621   -3.7388   -2.3888 O.2     1  LIG1      -0.8000000000000007
     16 O           2.4375   -4.8654   -0.4191 O.3     1  LIG1      -0.8100000000000005
     17 O          -0.1322   -4.6974   -0.3612 O.3     1  LIG1      -0.8100000000000005
     18 O          -4.4812    0.3734    3.1035 O.3     1  LIG1      -0.7899999999999991
     19 O          -2.8282   -1.6087    3.1870 O.3     1  LIG1      -0.8000000000000007
     20 O          -4.6415   -1.4885    1.3147 O.2     1  LIG1      -0.7899999999999991
     21 O           2.8380    0.1550   -0.6282 O.3     1  LIG1      -0.6799999999999997
     22 O          -1.7591    2.0254   -1.0816 O.3     1  LIG1      -0.6600000000000001
     23 O           1.4083   -2.5109   -0.0001 O.3     1  LIG1      -0.6799999999999997
     24 O          -2.5905    0.2485    1.3502 O.3     1  LIG1      -0.6699999999999999
     25 P           4.4033    0.8197   -0.0439 P.3     1  LIG1       0.8599999999999994
     26 P          -1.9622    3.6922   -1.5523 P.3     1  LIG1       0.8900000000000006
     27 P           1.1866   -4.0515   -0.8679 P.3     1  LIG1       0.8900000000000006
     28 P          -3.7153   -0.7001    2.2767 P.3     1  LIG1       0.9000000000000004
     29 H           0.4677    0.9192   -1.7101 H       1  LIG1       0.10999999999999999
     30 H          -1.1036   -2.1401    0.5341 H       1  LIG1       0.10999999999999999
     31 H           1.6422    0.2992    1.0647 H       1  LIG1       0.09999999999999998
     32 H          -0.8578    1.9260    0.8238 H       1  LIG1          0.12
     33 H           0.3578   -1.2645   -1.2610 H       1  LIG1       0.10999999999999999
     34 H          -2.1527   -0.3798   -0.6001 H       1  LIG1          0.12
     35 H           0.5543    3.0972   -1.0946 H       1  LIG1       0.42000000000000004
     36 H          -1.1237   -1.1944    2.5336 H       1  LIG1       0.42000000000000004
@<TRIPOS>BOND
     1    14    26    2
     2    15    27    2
     3    13    26    1
     4    29     1    1
     5    26    22    1
     6    26    12    1
     7    33     5    1
     8    35     7    1
     9    22     4    1
    10    11    25    2
    11    27    16    1
    12    27    17    1
    13    27    23    1
    14     1     7    1
    15     1     4    1
    16     1     3    1
    17    21    25    1
    18    21     3    1
    19    34     6    1
    20     5     3    1
    21     5    23    1
    22     5     2    1
    23    10    25    1
    24     4     6    1
    25     4    32    1
    26    25     9    1
    27     3    31    1
    28     6     2    1
    29     6    24    1
    30    30     2    1
    31     2     8    1
    32    20    28    2
    33    24    28    1
    34     8    36    1
    35    28    18    1
    36    28    19    1
