@<TRIPOS>MOLECULE
ZDGJAHTZVHVLOT-YUMQZZPRSA-M	6045564	-991.3997637304045
 38 37 0 0 0
SMALL
MULLIKEN NwChem

@<TRIPOS>ATOM
      1 CG         -0.5208   -2.0540   -0.7334 C.3     1  GLU1      -0.29000000000000004
      2 CD         -1.1360   -2.4529    0.6310 C.3     1  GLU1      -0.28000000000000025
      3 CB         -1.2807   -0.9189   -1.4411 C.3     1  GLU1      -0.2599999999999998
      4 CB          1.6508    0.6152    2.6570 C.3     1  GLU1      -0.3099999999999996
      5 CG          2.2772    0.1141    1.3479 C.3     1  GLU1       -0.3700000000000001
      6 CE         -0.4667   -1.7928    1.8446 C.3     1  GLU1      -0.1299999999999999
      7 CA         -0.5402   -0.2673   -2.6335 C.3     1  GLU1       -0.08000000000000007
      8 CA          0.1008    0.3913    2.8665 C.3     1  GLU1       -0.040000000000000036
      9 CD          1.7242    0.6572    0.0036 C.2     1  GLU1       0.5999999999999996
     10 C          -0.2577   -1.3041   -3.7142 C.2     1  GLU1       0.5800000000000001
     11 C          -0.5959    1.7525    3.0521 C.2     1  GLU1       0.5700000000000003
     12 N          -1.3531    0.8348   -3.1589 N.3     1  GLU1      -0.7599999999999998
     13 N          -0.6334   -0.3475    1.8344 N.3     1  GLU1      -0.6399999999999997
     14 OE2         0.7556    1.4933    0.0301 O.co2   1  GLU1      -0.6600000000000001
     15 OE1         2.2494    0.1854   -1.0230 O.co2   1  GLU1      -0.6300000000000008
     16 O          -0.9343   -1.4834   -4.7130 O.2     1  GLU1      -0.5299999999999994
     17 OXT         0.8350   -2.0662   -3.4629 O.3     1  GLU1      -0.5800000000000001
     18 OXT        -1.1718    2.0552    4.0824 O.2     1  GLU1      -0.5500000000000007
     19 O          -0.5103    2.5886    2.0191 O.3     1  GLU1      -0.6400000000000006
     20 HG1        -0.4972   -2.9306   -1.3922 H       1  GLU1       0.15000000000000002
     21 HG2         0.5272   -1.7550   -0.6065 H       1  GLU1          0.14
     22 HD1        -2.2085   -2.2139    0.6428 H       1  GLU1          0.14
     23 HD2        -1.0544   -3.5405    0.7664 H       1  GLU1          0.14
     24 HB1        -2.2617   -1.2843   -1.7826 H       1  GLU1          0.14
     25 HB2        -1.4807   -0.0938   -0.7533 H       1  GLU1       0.15000000000000002
     26 HB1         1.8582    1.6888    2.7429 H       1  GLU1       0.15000000000000002
     27 HB2         2.1830    0.1415    3.4930 H       1  GLU1       0.15000000000000002
     28 HG1         3.3507    0.3468    1.3614 H       1  GLU1       0.16000000000000003
     29 HG2         2.2261   -0.9787    1.2816 H       1  GLU1       0.17000000000000004
     30 HE1        -0.9235   -2.1827    2.7675 H       1  GLU1          0.14
     31 HE2         0.5922   -2.1168    1.8664 H       1  GLU1          0.13
     32 HA          0.4151    0.1197   -2.2573 H       1  GLU1       0.18000000000000005
     33 HA         -0.0580   -0.1376    3.8110 H       1  GLU1       0.16000000000000003
     34 H1         -0.7497    1.4678   -3.6810 H       1  GLU1       0.32999999999999996
     35 H2         -2.0077    0.4482   -3.8395 H       1  GLU1       0.31999999999999995
     36 H          -0.3855    0.0493    0.9324 H       1  GLU1          0.35
     37 HXT         0.8809   -2.7055   -4.1988 H       1  GLU1       0.43999999999999995
     38 H           0.0255    2.1781    1.2529 H       1  GLU1       0.45999999999999996
@<TRIPOS>BOND
     1    16    10    2
     2    37    17    1
     3    35    12    1
     4    10    17    1
     5    10     7    1
     6    34    12    1
     7    12     7    1
     8     7    32    1
     9     7     3    1
    10    24     3    1
    11     3    25    1
    12     3     1    1
    13    20     1    1
    14    15     9   ar
    15     1    21    1
    16     1     2    1
    17     9    14   ar
    18     9     5    1
    19     2    22    1
    20     2    23    1
    21     2     6    1
    22    36    13    1
    23    38    19    1
    24    29     5    1
    25     5    28    1
    26     5     4    1
    27    13     6    1
    28    13     8    1
    29     6    31    1
    30     6    30    1
    31    19    11    1
    32     4    26    1
    33     4     8    1
    34     4    27    1
    35     8    11    1
    36     8    33    1
    37    11    18    2
