@<TRIPOS>MOLECULE
ZDXPYRJPNDTMRX-VKHMYHEASA-N	6045566	-531.6229112265921
 20 19 0 0 0
SMALL
MULLIKEN NwChem

@<TRIPOS>ATOM
      1 CB          0.2210    0.7618   -0.7297 C.3     1  GLN1      -0.29000000000000004
      2 CG         -0.2392   -0.1420   -1.8919 C.3     1  GLN1      -0.3099999999999996
      3 CA         -0.3450    0.3204    0.6389 C.3     1  GLN1       -0.05999999999999961
      4 CD          0.1350   -1.5868   -1.6552 C.3     1  GLN1       0.4800000000000004
      5 C           0.0952    1.3148    1.7118 C.2     1  GLN1       0.5800000000000001
      6 N          -1.7949    0.1580    0.5794 N.3     1  GLN1      -0.7400000000000002
      7 NE2        -0.5204   -2.4782   -1.0259 N.3     1  GLN1      -0.6900000000000004
      8 OE1         1.3667   -1.8759   -2.1515 O.3     1  GLN1      -0.6099999999999994
      9 OXT        -0.6478    2.0554    2.3185 O.2     1  GLN1      -0.5099999999999998
     10 O           1.4358    1.2914    1.9060 O.3     1  GLN1      -0.5800000000000001
     11 HB1        -0.1033    1.7903   -0.9393 H       1  GLN1       0.17000000000000004
     12 HB2         1.3136    0.7739   -0.6689 H       1  GLN1       0.17000000000000004
     13 HG1        -1.3243   -0.0740   -1.9960 H       1  GLN1       0.18000000000000005
     14 HG2         0.2232    0.2061   -2.8210 H       1  GLN1       0.17000000000000004
     15 HA          0.0947   -0.6520    0.8889 H       1  GLN1       0.18000000000000005
     16 H1         -2.1295   -0.1760    1.4822 H       1  GLN1       0.32999999999999996
     17 H2         -2.2211    1.0789    0.4688 H       1  GLN1       0.32999999999999996
     18 HE2        -1.4053   -2.0868   -0.6969 H       1  GLN1       0.31999999999999995
     19 HE1         1.5370   -2.8049   -1.9068 H       1  GLN1       0.43000000000000005
     20 H           1.6312    1.9628    2.5868 H       1  GLN1       0.44999999999999996
@<TRIPOS>BOND
     1    14     2    1
     2     8    19    1
     3     8     4    1
     4    13     2    1
     5     2     4    1
     6     2     1    1
     7     4     7    1
     8     7    18    1
     9    11     1    1
    10     1    12    1
    11     1     3    1
    12    17     6    1
    13     6     3    1
    14     6    16    1
    15     3    15    1
    16     3     5    1
    17     5    10    1
    18     5     9    2
    19    10    20    1
