@<TRIPOS>MOLECULE
ZEPNVCGPJXYABB-LOIOQLKMSA-N	6045567	-1168.0997797821606
 73 76 0 0 0
SMALL
MULLIKEN NwChem

@<TRIPOS>ATOM
      1 C          -2.1762   -5.0248    0.6184 C.3     1  LIG1      -0.46999999999999975
      2 C          -0.7055   -5.7502    2.5546 C.3     1  LIG1      -0.45999999999999996
      3 C          -3.5480   -5.0592    4.0940 C.2     1  LIG1      -0.4500000000000002
      4 C          -2.6167   -0.0725    3.1929 C.3     1  LIG1      -0.4800000000000004
      5 C          -0.4010    2.8666   -3.5764 C.3     1  LIG1         -0.5
      6 C           1.2300    1.8232    1.9124 C.3     1  LIG1         -0.5
      7 C          -2.9276   -3.0573    2.7740 C.3     1  LIG1      -0.3600000000000003
      8 C          -1.5576   -2.3653    2.9133 C.3     1  LIG1      -0.28000000000000025
      9 C           2.5345    0.6898   -2.9441 C.2     1  LIG1      -0.23000000000000043
     10 C           2.2344    0.1451   -1.6272 C.2     1  LIG1      -0.2400000000000002
     11 C           1.1049   -1.0995    2.5517 C.3     1  LIG1      -0.3099999999999996
     12 C           1.6730   -1.0562    1.1035 C.3     1  LIG1      -0.28000000000000025
     13 C           2.7775    4.1336   -2.9520 C.3     1  LIG1      -0.3099999999999996
     14 C          -0.5509    2.4060   -0.4431 C.3     1  LIG1      -0.29000000000000004
     15 C           1.5181    3.7427   -2.1415 C.3     1  LIG1      -0.29000000000000004
     16 C          -1.0125    1.6143    0.7946 C.3     1  LIG1      -0.2999999999999998
     17 C           2.3027    2.4021   -4.7418 C.3     1  LIG1      -0.3600000000000003
     18 C          -2.1522   -5.4849    2.0854 C.3     1  LIG1      -0.13999999999999968
     19 C          -2.9068   -4.5505    3.0356 C.2     1  LIG1      0.23000000000000043
     20 C          -1.5491   -0.8960    2.4504 C.3     1  LIG1      -0.08000000000000007
     21 C           1.8489    1.7167   -3.4772 C.2     1  LIG1      0.13999999999999968
     22 C           2.6747    3.8878   -4.4617 C.3     1  LIG1       0.15000000000000036
     23 C           1.1690    0.5524   -0.9148 C.2     1  LIG1      0.15000000000000036
     24 C          -0.1627   -0.1824    2.5849 C.3     1  LIG1      -0.09999999999999964
     25 C           0.7101   -0.1305    0.3431 C.3     1  LIG1      -0.16999999999999993
     26 C           0.1919    1.5602   -1.5139 C.3     1  LIG1      -0.16999999999999993
     27 C           0.7842    2.4524   -2.6693 C.3     1  LIG1      0.05999999999999961
     28 C           0.1506    0.8288    1.4254 C.3     1  LIG1      0.09999999999999964
     29 O           1.6825    4.7148   -5.0844 O.3     1  LIG1      -0.6699999999999999
     30 H          -1.6278   -4.0861    0.4754 H       1  LIG1       0.16000000000000003
     31 H          -3.2013   -4.8721    0.2622 H       1  LIG1       0.15000000000000002
     32 H          -1.7062   -5.7796   -0.0224 H       1  LIG1       0.15000000000000002
     33 H          -0.0869   -4.8479    2.5083 H       1  LIG1       0.16000000000000003
     34 H          -0.6933   -6.1111    3.5880 H       1  LIG1          0.14
     35 H          -0.2327   -6.5089    1.9187 H       1  LIG1       0.15000000000000002
     36 H          -4.0785   -4.4274    4.8026 H       1  LIG1          0.14
     37 H          -3.5632   -6.1284    4.2965 H       1  LIG1          0.14
     38 H          -2.4842   -0.1711    4.2787 H       1  LIG1          0.14
     39 H          -2.5454    0.9908    2.9481 H       1  LIG1       0.15000000000000002
     40 H          -3.6330   -0.3974    2.9484 H       1  LIG1       0.15000000000000002
     41 H          -1.1994    3.3162   -2.9761 H       1  LIG1       0.15000000000000002
     42 H          -0.1019    3.5995   -4.3264 H       1  LIG1       0.16000000000000003
     43 H          -0.8184    1.9901   -4.0865 H       1  LIG1          0.14
     44 H           0.7799    2.5746    2.5727 H       1  LIG1          0.14
     45 H           2.0272    1.3286    2.4737 H       1  LIG1       0.15000000000000002
     46 H           1.7084    2.3465    1.0789 H       1  LIG1       0.16000000000000003
     47 H          -3.3079   -2.8680    1.7592 H       1  LIG1       0.15000000000000002
     48 H          -3.6460   -2.5954    3.4592 H       1  LIG1       0.15000000000000002
     49 H          -1.2208   -2.4432    3.9568 H       1  LIG1          0.13
     50 H          -0.8325   -2.9186    2.3120 H       1  LIG1       0.16000000000000003
     51 H           3.3688    0.2577   -3.4950 H       1  LIG1          0.13
     52 H           2.8752   -0.6468   -1.2473 H       1  LIG1          0.13
     53 H           1.8462   -0.7094    3.2560 H       1  LIG1          0.14
     54 H           0.9002   -2.1181    2.8819 H       1  LIG1       0.15000000000000002
     55 H           1.7305   -2.0489    0.6448 H       1  LIG1          0.14
     56 H           2.6874   -0.6421    1.0944 H       1  LIG1          0.14
     57 H           3.6313    3.5474   -2.5908 H       1  LIG1          0.14
     58 H           3.0286    5.1869   -2.7616 H       1  LIG1          0.14
     59 H          -1.4254    2.8782   -0.9037 H       1  LIG1          0.14
     60 H           0.0887    3.2265   -0.1085 H       1  LIG1       0.15000000000000002
     61 H           0.8071    4.5768   -2.1231 H       1  LIG1          0.14
     62 H           1.8445    3.5852   -1.1085 H       1  LIG1       0.16000000000000003
     63 H          -1.8139    0.9267    0.4996 H       1  LIG1          0.14
     64 H          -1.4488    2.3166    1.5170 H       1  LIG1          0.13
     65 H           3.1706    1.8746   -5.1518 H       1  LIG1       0.15000000000000002
     66 H           1.5291    2.3985   -5.5188 H       1  LIG1       0.16000000000000003
     67 H          -2.6709   -6.4525    2.1274 H       1  LIG1          0.14
     68 H          -1.8273   -0.9244    1.3874 H       1  LIG1          0.13
     69 H           3.6523    4.1042   -4.9214 H       1  LIG1          0.13
     70 H          -0.1794    0.3516    3.5444 H       1  LIG1       0.10999999999999999
     71 H          -0.1534   -0.7495    0.0374 H       1  LIG1          0.14
     72 H          -0.5817    0.9302   -1.9908 H       1  LIG1          0.14
     73 H           1.8641    5.6332   -4.8298 H       1  LIG1       0.42000000000000004
@<TRIPOS>BOND
     1    66    17    1
     2    65    17    1
     3    29    73    1
     4    29    22    1
     5    69    22    1
     6    17    22    1
     7    17    21    1
     8    22    13    1
     9    42     5    1
    10    43     5    1
    11     5    41    1
    12     5    27    1
    13    51     9    1
    14    21     9    2
    15    21    27    1
    16    13    58    1
    17    13    57    1
    18    13    15    1
    19     9    10    1
    20    27    15    1
    21    27    26    1
    22    15    61    1
    23    15    62    1
    24    72    26    1
    25    10    52    1
    26    10    23    2
    27    26    23    1
    28    26    14    1
    29    23    25    1
    30    59    14    1
    31    14    60    1
    32    14    16    1
    33    32     1    1
    34    71    25    1
    35    31     1    1
    36    25    12    1
    37    25    28    1
    38    30     1    1
    39    63    16    1
    40     1    18    1
    41    55    12    1
    42    16    28    1
    43    16    64    1
    44    46     6    1
    45    56    12    1
    46    12    11    1
    47    68    20    1
    48    28     6    1
    49    28    24    1
    50    47     7    1
    51     6    45    1
    52     6    44    1
    53    35     2    1
    54    18    67    1
    55    18     2    1
    56    18    19    1
    57    50     8    1
    58    20    24    1
    59    20     8    1
    60    20     4    1
    61    33     2    1
    62    11    24    1
    63    11    54    1
    64    11    53    1
    65     2    34    1
    66    24    70    1
    67     7     8    1
    68     7    19    1
    69     7    48    1
    70     8    49    1
    71    39     4    1
    72    40     4    1
    73    19     3    2
    74     4    38    1
    75     3    37    1
    76     3    36    1
