@<TRIPOS>MOLECULE
ZFEGYUMHFZOYIY-MKFCKLDKSA-M	11075295	-1010.0173006607027
 35 36 0 0 0
SMALL
MULLIKEN NwChem

@<TRIPOS>ATOM
      1 C           3.7954   -0.4713    0.0212 C.3     1  LIG1      -0.46999999999999975
      2 C          -4.2481    1.7041    0.6508 C.3     1  LIG1       -0.5300000000000002
      3 C           0.5101   -1.7276   -2.0669 C.3     1  LIG1       -0.03000000000000025
      4 C           2.6214    0.2739    0.6541 C.3     1  LIG1       0.040000000000000036
      5 C          -3.2067    0.5795    0.7151 C.2     1  LIG1       0.5099999999999998
      6 C          -0.1154   -0.3612   -2.4141 C.3     1  LIG1       0.03000000000000025
      7 C          -1.0484   -0.1869    0.2492 C.3     1  LIG1       0.009999999999999787
      8 C           0.3772    0.8277   -1.5517 C.3     1  LIG1       0.1299999999999999
      9 C           0.3087    0.4697   -0.0483 C.3     1  LIG1       0.07000000000000028
     10 C           2.7996    0.3340    2.1855 C.2     1  LIG1       0.5899999999999999
     11 C          -1.3703   -1.2459   -0.8315 C.3     1  LIG1       0.3200000000000003
     12 N          -2.0176    0.8977    0.2000 N.am    1  LIG1      -0.5999999999999996
     13 O          -3.5470   -0.5119    1.2384 O.2     1  LIG1      -0.6899999999999995
     14 O          -0.4248    1.9635   -1.7872 O.3     1  LIG1      -0.7100000000000009
     15 O           3.7437    0.8781    2.7156 O.2     1  LIG1      -0.5299999999999994
     16 O           1.8348   -0.2963    2.8688 O.3     1  LIG1      -0.5999999999999996
     17 O          -0.3019   -2.2051   -0.9913 O.3     1  LIG1      -0.5500000000000007
     18 O           1.4063   -0.3956    0.3474 O.3     1  LIG1      -0.5500000000000007
     19 O          -1.4847   -0.6236   -2.1014 O.3     1  LIG1      -0.5099999999999998
     20 H           3.7186   -0.4301   -1.0697 H       1  LIG1       0.18000000000000005
     21 H           4.7404   -0.0228    0.3407 H       1  LIG1       0.17000000000000004
     22 H           3.7774   -1.5223    0.3289 H       1  LIG1       0.17000000000000004
     23 H          -4.6288    1.9041    1.6604 H       1  LIG1       0.15000000000000002
     24 H          -3.8412    2.6261    0.2240 H       1  LIG1          0.14
     25 H          -5.1036    1.3725    0.0481 H       1  LIG1       0.15000000000000002
     26 H           0.4308   -2.4153   -2.9222 H       1  LIG1       0.15000000000000002
     27 H           1.5544   -1.6650   -1.7463 H       1  LIG1       0.17000000000000004
     28 H           2.6031    1.3103    0.2936 H       1  LIG1       0.19999999999999996
     29 H          -0.0543   -0.0968   -3.4739 H       1  LIG1       0.16000000000000003
     30 H          -1.0226   -0.7047    1.2237 H       1  LIG1          0.12
     31 H           1.4153    1.0684   -1.8343 H       1  LIG1       0.15000000000000002
     32 H           0.3659    1.4001    0.5301 H       1  LIG1       0.15000000000000002
     33 H          -2.3022   -1.7587   -0.5954 H       1  LIG1       0.15000000000000002
     34 H          -1.2351    1.8051   -1.2140 H       1  LIG1           0.4
     35 H           1.2212   -0.6526    2.1818 H       1  LIG1           0.47
@<TRIPOS>BOND
     1    29     6    1
     2    26     3    1
     3     6    19    1
     4     6     3    1
     5     6     8    1
     6    19    11    1
     7     3    27    1
     8     3    17    1
     9    31     8    1
    10    14     8    1
    11    14    34    1
    12     8     9    1
    13    20     1    1
    14    17    11    1
    15    11    33    1
    16    11     7    1
    17     9     7    1
    18     9    18    1
    19     9    32    1
    20     1    22    1
    21     1    21    1
    22     1     4    1
    23    25     2    1
    24    12     7    1
    25    12     5   am
    26    24     2    1
    27     7    30    1
    28    28     4    1
    29    18     4    1
    30     2     5    1
    31     2    23    1
    32     4    10    1
    33     5    13    2
    34    35    16    1
    35    10    15    2
    36    10    16    1
