@<TRIPOS>MOLECULE
ZFXICKRXPZTFPB-KCQRSJHASA-I	11075294	-4286.237284051499
 94 96 0 0 0
SMALL
MULLIKEN NwChem

@<TRIPOS>ATOM
      1 C           1.3049   -0.6110   -0.9420 C.3     1  LIG1      -0.46999999999999975
      2 C           0.0181    1.5122   -0.5233 C.3     1  LIG1      -0.4900000000000002
      3 C          16.2261   -0.9679   -1.8614 C.3     1  LIG1      -0.3099999999999996
      4 C          15.2193    0.1151   -2.0717 C.2     1  LIG1      -0.05999999999999961
      5 C          17.5451   -0.4671   -1.2380 C.3     1  LIG1       -0.3700000000000001
      6 C          13.9366    0.1627   -1.6590 C.2     1  LIG1      -0.20000000000000018
      7 C           6.6642   -0.6927    0.3340 C.3     1  LIG1       -0.3700000000000001
      8 C           5.2955   -1.0447    0.9459 C.3     1  LIG1       -0.1200000000000001
      9 C           9.3638   -0.1587   -0.3380 C.3     1  LIG1       -0.11000000000000032
     10 C          10.8704   -0.1912   -0.6883 C.3     1  LIG1       -0.41999999999999993
     11 C          -6.5724    0.5722    2.0825 C.3     1  LIG1       -0.08000000000000007
     12 C           0.4059   -0.0970    1.3608 C.3     1  LIG1       -0.05999999999999961
     13 C         -10.8781   -0.4495   -4.0797 C.ar    1  LIG1       0.15000000000000036
     14 C          -7.5427   -1.0768   -1.3668 C.ar    1  LIG1       0.20000000000000018
     15 C          -7.5279    1.4192    1.2901 C.3     1  LIG1       0.1299999999999999
     16 C           7.8196   -1.6897    0.6681 C.2     1  LIG1       0.4800000000000004
     17 C          18.7875   -1.4082   -1.5049 C.2     1  LIG1       0.5199999999999996
     18 C          13.1026    1.3440   -1.9905 C.2     1  LIG1          0.25
     19 C          -8.8724   -1.7238   -2.8881 C.ar    1  LIG1       0.1900000000000004
     20 C          -9.5730    1.4839    0.0854 C.3     1  LIG1       0.05999999999999961
     21 C          -8.9820    0.9226    1.4198 C.3     1  LIG1       0.15000000000000036
     22 C           2.3138    1.2653    0.4745 C.3     1  LIG1       0.07000000000000028
     23 C          -9.6391   -2.3729   -3.8646 C.ar    1  LIG1       0.4400000000000004
     24 C          -9.2473   -0.4023   -2.5787 C.ar    1  LIG1          0.54
     25 C           3.4119    0.3847    1.1584 C.2     1  LIG1       0.4900000000000002
     26 C          -8.3819    1.3016   -0.8729 C.3     1  LIG1       0.2699999999999996
     27 C           1.0045    0.4943    0.0811 C.3     1  LIG1       0.07000000000000028
     28 N          -9.3524   -3.6717   -4.2592 N.pl3   1  LIG1      -0.7800000000000002
     29 N           9.0845   -1.3941    0.3282 N.am    1  LIG1      -0.6299999999999999
     30 N           4.2218   -0.2407    0.3510 N.am    1  LIG1      -0.5999999999999996
     31 N         -10.6556   -1.7278   -4.4588 N.ar    1  LIG1        -0.54
     32 N         -10.2400    0.2833   -3.1705 N.ar    1  LIG1        -0.54
     33 N          -7.8012   -2.1320   -2.1210 N.ar    1  LIG1      -0.5800000000000001
     34 N          -8.3833   -0.0071   -1.5887 N.ar    1  LIG1      -0.5199999999999996
     35 O           7.5079   -2.7658    1.2392 O.2     1  LIG1      -0.7100000000000009
     36 O          19.7222   -1.2879   -0.6736 O.co2   1  LIG1      -0.6799999999999997
     37 O          18.7231   -2.1262   -2.5371 O.co2   1  LIG1      -0.6600000000000001
     38 O          13.5386    2.3255   -2.5880 O.2     1  LIG1      -0.5299999999999994
     39 O          -9.8426    2.8478    0.1707 O.3     1  LIG1        -0.75
     40 O           1.9905    2.3046    1.3955 O.3     1  LIG1      -0.7100000000000009
     41 O           3.3361    0.4497    2.4433 O.2     1  LIG1      -0.7300000000000004
     42 O         -11.6722    0.0359    2.0182 O.3     1  LIG1      -0.7699999999999996
     43 O         -11.5448    1.4673    4.2173 O.3     1  LIG1      -0.7300000000000004
     44 O         -11.6555    2.6290    1.8946 O.2     1  LIG1      -0.8000000000000007
     45 O          -3.2268    1.5181    0.5697 O.3     1  LIG1      -0.6500000000000004
     46 O          -4.4751   -0.8020    0.3261 O.2     1  LIG1      -0.6300000000000008
     47 O          -2.6188   -2.5121    1.3064 O.3     1  LIG1      -0.6899999999999995
     48 O          -1.2271   -1.7962    3.3896 O.2     1  LIG1      -0.5800000000000001
     49 O          -5.1891    1.0887    2.0047 O.3     1  LIG1      -0.5099999999999998
     50 O          -0.9503   -0.6272    1.0431 O.3     1  LIG1      -0.5700000000000003
     51 O          -7.1902    1.3558   -0.1157 O.3     1  LIG1      -0.5399999999999991
     52 O          -9.5218    1.3770    2.6048 O.3     1  LIG1      -0.6799999999999997
     53 O          -3.0615   -0.2488    2.3928 O.3     1  LIG1      -0.6199999999999992
     54 P         -11.3179    1.3431    2.7230 P.3     1  LIG1       0.9900000000000002
     55 P          -4.0587    0.3194    1.2270 P.3     1  LIG1       1.2200000000000006
     56 P          -1.8591   -1.3712    2.1297 P.3     1  LIG1          1.25
     57 S          11.3630    1.4008   -1.5244 S.3     1  LIG1      0.03999999999999915
     58 H           0.4028   -1.2007   -1.1514 H       1  LIG1       0.15000000000000002
     59 H           2.1077   -1.2566   -0.5774 H       1  LIG1       0.15000000000000002
     60 H           1.6557   -0.1692   -1.8833 H       1  LIG1          0.14
     61 H          -0.8816    1.0167   -0.9142 H       1  LIG1       0.15000000000000002
     62 H           0.4854    2.0337   -1.3678 H       1  LIG1       0.16000000000000003
     63 H          -0.2562    2.2716    0.2181 H       1  LIG1       0.16000000000000003
     64 H          15.8032   -1.7881   -1.2661 H       1  LIG1       0.15000000000000002
     65 H          16.5210   -1.4032   -2.8291 H       1  LIG1       0.16000000000000003
     66 H          15.5724    0.9829   -2.6327 H       1  LIG1       0.16000000000000003
     67 H          17.4403   -0.3001   -0.1595 H       1  LIG1          0.13
     68 H          17.7993    0.5134   -1.6740 H       1  LIG1       0.15000000000000002
     69 H          13.4917   -0.6509   -1.0938 H       1  LIG1       0.17000000000000004
     70 H           6.9420    0.3295    0.6363 H       1  LIG1          0.13
     71 H           6.5482   -0.6363   -0.7615 H       1  LIG1          0.12
     72 H           5.3456   -0.9408    2.0396 H       1  LIG1       0.08999999999999997
     73 H           5.1194   -2.1124    0.7509 H       1  LIG1       0.08999999999999997
     74 H           9.1849    0.7634    0.2642 H       1  LIG1       0.10999999999999999
     75 H           8.8073    0.0179   -1.2869 H       1  LIG1       0.10999999999999999
     76 H          11.4522   -0.3205    0.2285 H       1  LIG1       0.18999999999999995
     77 H          11.0722   -1.0331   -1.3564 H       1  LIG1       0.18000000000000005
     78 H          -6.8537    0.6169    3.1360 H       1  LIG1       0.19999999999999996
     79 H          -6.5805   -0.4632    1.7347 H       1  LIG1       0.19999999999999996
     80 H           1.0105   -0.9106    1.7619 H       1  LIG1       0.18000000000000005
     81 H           0.2969    0.6781    2.1209 H       1  LIG1       0.18000000000000005
     82 H         -11.7026    0.0451   -4.5933 H       1  LIG1       0.16000000000000003
     83 H          -6.7285   -1.0007   -0.6594 H       1  LIG1       0.21999999999999997
     84 H          -7.4956    2.4632    1.6169 H       1  LIG1       0.16000000000000003
     85 H         -10.4451    0.8854   -0.2133 H       1  LIG1          0.14
     86 H          -9.0016   -0.1853    1.3442 H       1  LIG1          0.12
     87 H           2.7175    1.6959   -0.4531 H       1  LIG1       0.10999999999999999
     88 H          -8.3850    2.0805   -1.6412 H       1  LIG1       0.18000000000000005
     89 H         -10.1588   -4.1653   -4.6213 H       1  LIG1          0.36
     90 H          -8.8235   -4.1894   -3.5667 H       1  LIG1          0.37
     91 H         -10.6211    2.8723    0.9083 H       1  LIG1       0.43999999999999995
     92 H           2.4116    1.8919    2.2084 H       1  LIG1           0.4
     93 H          -2.3017    1.2479    0.4020 H       1  LIG1          0.48
     94 H          -3.3556   -2.1191    0.7645 H       1  LIG1           0.49
@<TRIPOS>BOND
     1    89    28    1
     2    82    13    1
     3    31    13   ar
     4    31    23   ar
     5    28    23    1
     6    28    90    1
     7    13    32   ar
     8    23    19   ar
     9    32    24   ar
    10    19    24   ar
    11    19    33   ar
    12    65     3    1
    13    66     4    1
    14    38    18    2
    15    24    34   ar
    16    37    17   ar
    17    33    14   ar
    18     4     3    1
    19     4     6    2
    20    18     6    1
    21    18    57    1
    22    60     1    1
    23     3    64    1
    24     3     5    1
    25    68     5    1
    26     6    69    1
    27    88    26    1
    28    34    14   ar
    29    34    26    1
    30    57    10    1
    31    17     5    1
    32    17    36   ar
    33    62     2    1
    34    14    83    1
    35    77    10    1
    36    75     9    1
    37     5    67    1
    38    58     1    1
    39     1    59    1
    40     1    27    1
    41    61     2    1
    42    26    51    1
    43    26    20    1
    44    71     7    1
    45    10     9    1
    46    10    76    1
    47     2    27    1
    48     2    63    1
    49    87    22    1
    50     9    74    1
    51     9    29    1
    52    85    20    1
    53    51    15    1
    54    27    22    1
    55    27    12    1
    56    20    39    1
    57    20    21    1
    58    39    91    1
    59    46    55    2
    60    29    16   am
    61     7    70    1
    62     7    16    1
    63     7     8    1
    64    30     8    1
    65    30    25   am
    66    93    45    1
    67    22    25    1
    68    22    40    1
    69    45    55    1
    70    16    35    2
    71    73     8    1
    72    94    47    1
    73     8    72    1
    74    50    12    1
    75    50    56    1
    76    25    41    2
    77    55    49    1
    78    55    53    1
    79    15    21    1
    80    15    84    1
    81    15    11    1
    82    47    56    1
    83    86    21    1
    84    12    80    1
    85    12    81    1
    86    40    92    1
    87    21    52    1
    88    79    11    1
    89    44    54    2
    90    49    11    1
    91    42    54    1
    92    11    78    1
    93    56    53    1
    94    56    48    2
    95    52    54    1
    96    54    43    1
