@<TRIPOS>MOLECULE
ZGXJTSGNIOSYLO-UHFFFAOYSA-N	6045570	-476.28470213872856
 18 17 0 0 0
SMALL
MULLIKEN NwChem

@<TRIPOS>ATOM
      1 C           0.3347   -1.2892    0.1785 C.3     1  LIG1       -0.3700000000000001
      2 C           0.3623   -0.8430    1.6415 C.3     1  LIG1       -0.3600000000000003
      3 C          -0.9860   -1.0679   -2.0404 C.3     1  LIG1       -0.20999999999999996
      4 C          -0.6856   -0.5244   -0.6488 C.2     1  LIG1       0.46999999999999975
      5 C           0.7472    0.6075    1.8620 C.2     1  LIG1       0.5999999999999996
      6 N          -1.6000   -0.0522   -2.8789 N.3     1  LIG1      -0.7800000000000002
      7 O          -1.2617    0.4562   -0.2153 O.2     1  LIG1         -0.5
      8 O           0.3758    1.2916    2.7864 O.2     1  LIG1      -0.5199999999999996
      9 O           1.6324    1.0479    0.9293 O.3     1  LIG1      -0.5800000000000001
     10 H           0.1218   -2.3645    0.1058 H       1  LIG1       0.19999999999999996
     11 H           1.3165   -1.1405   -0.2889 H       1  LIG1       0.20999999999999996
     12 H          -0.6106   -0.9821    2.1185 H       1  LIG1       0.18999999999999995
     13 H           1.0881   -1.4533    2.1944 H       1  LIG1       0.20999999999999996
     14 H          -0.0517   -1.4325   -2.4912 H       1  LIG1       0.18000000000000005
     15 H          -1.6036   -1.9735   -1.8640 H       1  LIG1       0.18000000000000005
     16 H          -2.1766   -0.4786   -3.5985 H       1  LIG1       0.32999999999999996
     17 H          -2.2017    0.5284   -2.2973 H       1  LIG1       0.31999999999999995
     18 H           1.8196    1.9784    1.1532 H       1  LIG1       0.43999999999999995
@<TRIPOS>BOND
     1    16     6    1
     2     6    17    1
     3     6     3    1
     4    14     3    1
     5     3    15    1
     6     3     4    1
     7     4     7    2
     8     4     1    1
     9    11     1    1
    10    10     1    1
    11     1     2    1
    12     9    18    1
    13     9     5    1
    14     2     5    1
    15     2    12    1
    16     2    13    1
    17     5     8    2
