@<TRIPOS>MOLECULE
ZIIRLFNUZROIBX-UHFFFAOYSA-M	11075292	-1760.9203725743687
 13 13 0 0 0
SMALL
MULLIKEN NwChem

@<TRIPOS>ATOM
      1 C           1.4924    1.1651    0.0058 C.2     1  LIG1       -0.2699999999999996
      2 C           0.1955    1.6399    0.0130 C.2     1  LIG1       -0.1200000000000001
      3 C           1.8233   -0.2443   -0.0066 C.2     1  LIG1       0.4299999999999997
      4 C           0.6390   -1.0958   -0.0106 C.3     1  LIG1       -0.23000000000000043
      5 C          -0.6559   -0.5757   -0.0030 C.2     1  LIG1       -0.1299999999999999
      6 C          -0.9279    0.8021    0.0090 C.2     1  LIG1       0.3200000000000003
      7 CL         -0.0804    3.4010    0.0282 Cl      1  LIG1      -0.07000000000000028
      8 CL          0.9168   -2.8347   -0.0257 Cl      1  LIG1      -0.0799999999999983
      9 CL         -2.0839   -1.6542   -0.0081 Cl      1  LIG1      -0.03999999999999915
     10 O           3.0013   -0.6741   -0.0131 O.2     1  LIG1      -0.7200000000000006
     11 O          -2.2003    1.3394    0.0166 O.2     1  LIG1      -0.6699999999999999
     12 H           2.3265    1.8582    0.0094 H       1  LIG1          0.14
     13 H          -2.8169    0.5894    0.0116 H       1  LIG1       0.43999999999999995
@<TRIPOS>BOND
     1     8     4    1
     2    10     3    2
     3     4     3    1
     4     4     5    1
     5     9     5    1
     6     3     1    1
     7     5     6    2
     8     1    12    1
     9     1     2    2
    10     6     2    1
    11     6    11    1
    12    13    11    1
    13     2     7    1
