@<TRIPOS>MOLECULE
ZIZLDVKLMYVMNX-UHFFFAOYSA-L	6045574	-1125.8010086700297
 29 28 0 0 0
SMALL
MULLIKEN NwChem

@<TRIPOS>ATOM
      1 C          -0.2480   -0.3771   -3.6790 C.3     1  LIG1      -0.6200000000000001
      2 C          -2.0766   -0.3173   -0.1139 C.3     1  LIG1      -0.2599999999999998
      3 C          -2.3358    1.0985   -0.6680 C.3     1  LIG1        -0.25
      4 C          -0.6006   -0.7514   -0.0444 C.3     1  LIG1      -0.2999999999999998
      5 C          -1.5221    1.5074   -1.9028 C.3     1  LIG1      -0.4500000000000002
      6 C           0.3813    0.2176    0.6677 C.3     1  LIG1       -0.15000000000000036
      7 C           0.5373   -0.1092    2.1682 C.3     1  LIG1       0.04999999999999982
      8 C           1.6848    0.3558   -0.1952 C.2     1  LIG1           0.5
      9 C           1.2376   -1.4627    2.5710 C.2     1  LIG1       0.5199999999999996
     10 O           1.1884    0.9596    2.8494 O.3     1  LIG1      -0.7300000000000004
     11 O           1.4738    0.8840   -1.3513 O.co2   1  LIG1      -0.6500000000000004
     12 O           2.7745   -0.0351    0.2539 O.co2   1  LIG1      -0.6500000000000004
     13 O           2.1858   -1.3173    3.4013 O.co2   1  LIG1      -0.6799999999999997
     14 O           0.7460   -2.5333    2.1370 O.co2   1  LIG1      -0.6600000000000001
     15 S          -1.8471    0.5151   -3.4383 S.3     1  LIG1      -0.05000000000000071
     16 H           0.0874   -0.2281   -4.7121 H       1  LIG1       0.18000000000000005
     17 H          -0.3812   -1.4477   -3.4940 H       1  LIG1       0.18000000000000005
     18 H           0.5023    0.0175   -2.9745 H       1  LIG1       0.21999999999999997
     19 H          -2.5345   -0.3709    0.8863 H       1  LIG1          0.13
     20 H          -2.6213   -1.0401   -0.7410 H       1  LIG1          0.12
     21 H          -2.0841    1.8357    0.1086 H       1  LIG1          0.14
     22 H          -3.4144    1.2199   -0.8655 H       1  LIG1          0.13
     23 H          -0.5288   -1.7207    0.4605 H       1  LIG1          0.13
     24 H          -0.2536   -0.8980   -1.0697 H       1  LIG1          0.14
     25 H          -0.4395    1.4284   -1.6951 H       1  LIG1       0.22999999999999998
     26 H          -1.7520    2.5492   -2.1628 H       1  LIG1       0.16000000000000003
     27 H          -0.0439    1.2325    0.6490 H       1  LIG1          0.12
     28 H          -0.4963   -0.2058    2.5676 H       1  LIG1       0.09999999999999998
     29 H           1.9328    0.4363    3.2486 H       1  LIG1           0.39
@<TRIPOS>BOND
     1    16     1    1
     2     1    17    1
     3     1    15    1
     4     1    18    1
     5    15     5    1
     6    26     5    1
     7     5    25    1
     8     5     3    1
     9    11     8   ar
    10    24     4    1
    11    22     3    1
    12    20     2    1
    13     3     2    1
    14     3    21    1
    15     8    12   ar
    16     8     6    1
    17     2     4    1
    18     2    19    1
    19     4    23    1
    20     4     6    1
    21    27     6    1
    22     6     7    1
    23    14     9   ar
    24     7    28    1
    25     7     9    1
    26     7    10    1
    27     9    13   ar
    28    10    29    1
