@<TRIPOS>MOLECULE
ZJUKTBDSGOFHSH-WFMPWKQPSA-N	6045575	-1648.0831296550332
 46 48 0 0 0
SMALL
MULLIKEN NwChem

@<TRIPOS>ATOM
      1 C1         -1.5038   -3.7454    0.1313 C.3     1  <1>       -0.2699999999999996
      2 C2         -1.5928   -2.2168    0.1590 C.3     1  <1>       -0.4299999999999997
      3 C3          0.9621   -1.9138   -1.1735 C.3     1  <1>        -0.4500000000000002
      4 C4          0.0587    4.5976    2.3304 C.ar    1  <1>        0.16999999999999993
      5 C5          0.8514    2.6633   -1.4996 C.ar    1  <1>        0.21999999999999975
      6 C6         -2.2205   -4.3602   -1.0886 C.3     1  <1>        -0.05999999999999961
      7 C7          1.9215   -1.1320   -0.2747 C.3     1  <1>        0.15000000000000036
      8 C8          0.1454    4.2883   -0.3245 C.ar    1  <1>        0.17999999999999972
      9 C9          1.5968   -1.0587    1.2265 C.3     1  <1>        0.07000000000000028
     10 C10         0.9491    0.3263    1.3774 C.3     1  <1>        0.08000000000000007
     11 C11        -0.3797    5.4708    0.2367 C.ar    1  <1>            0.5
     12 C12         0.6087    3.3350    0.5852 C.ar    1  <1>        0.5800000000000001
     13 C13         1.7625    1.1161    0.3288 C.3     1  <1>        0.3099999999999996
     14 C14        -1.9064   -5.8525   -1.1690 C.2     1  <1>        0.5800000000000001
     15 N1         -3.6498   -4.0788   -1.0254 N.3     1  <1>         -0.75
     16 N2         -0.8400    6.4872   -0.5275 N.pl3   1  <1>       -0.7800000000000002
     17 N3         -0.4078    5.6014    1.5795 N.ar    1  <1>       -0.5499999999999998
     18 N4          0.5840    3.4321    1.9278 N.ar    1  <1>       -0.5899999999999999
     19 N5          0.2984    3.8482   -1.6272 N.ar    1  <1>       -0.5700000000000003
     20 N6          1.0649    2.2912   -0.1843 N.ar    1  <1>         -0.54
     21 O1          2.8167   -1.0822    1.9471 O.3     1  <1>       -0.6899999999999995
     22 O2          1.1079    0.7784    2.6988 O.3     1  <1>       -0.6999999999999993
     23 O3         -2.7049   -6.7448   -0.9845 O.2     1  <1>       -0.5099999999999998
     24 O4         -0.6001   -6.0809   -1.4578 O.3     1  <1>       -0.5800000000000001
     25 O5          1.9922    0.2364   -0.7422 O.3     1  <1>       -0.5399999999999991
     26 S1         -0.7832   -1.3414   -1.2466 S.3     1  <1>       0.019999999999999574
     27 H1         -1.9785   -4.1289    1.0455 H       1  <1>        0.17000000000000004
     28 H2         -0.4626   -4.0817    0.1575 H       1  <1>        0.18000000000000005
     29 H3         -2.6432   -1.9236    0.0714 H       1  <1>        0.18999999999999995
     30 H4         -1.2142   -1.8300    1.1105 H       1  <1>        0.19999999999999996
     31 H5          1.0002   -2.9782   -0.9217 H       1  <1>        0.20999999999999996
     32 H6          1.3211   -1.8179   -2.2029 H       1  <1>        0.19999999999999996
     33 H7          0.0014    4.7477    3.4062 H       1  <1>        0.18000000000000005
     34 H8          1.1199    1.9954   -2.3039 H       1  <1>        0.20999999999999996
     35 H9         -1.8083   -3.8877   -1.9875 H       1  <1>        0.18999999999999995
     36 H10         2.9195   -1.5753   -0.3807 H       1  <1>        0.17000000000000004
     37 H11         0.9349   -1.8740    1.5498 H       1  <1>        0.17000000000000004
     38 H12        -0.1002    0.3041    1.0555 H       1  <1>        0.17000000000000004
     39 H13         2.7067    1.4481    0.7841 H       1  <1>        0.18000000000000005
     40 H14        -4.0782   -4.2830   -1.9269 H       1  <1>        0.32999999999999996
     41 H15        -4.0800   -4.7331   -0.3702 H       1  <1>        0.31999999999999995
     42 H16        -0.9338    6.3575   -1.5238 H       1  <1>           0.38
     43 H17        -1.2978    7.2657   -0.0777 H       1  <1>           0.38
     44 H18         2.6617   -0.5107    2.7234 H       1  <1>        0.43000000000000005
     45 H19         0.9209    1.7499    2.7017 H       1  <1>        0.43999999999999995
     46 H20        -0.4814   -7.0498   -1.4630 H       1  <1>        0.44999999999999996
@<TRIPOS>BOND
     1    34     5    1
     2    32     3    1
     3    35     6    1
     4    40    15    1
     5    19     5   ar
     6    19     8   ar
     7    42    16    1
     8     5    20   ar
     9    46    24    1
    10    24    14    1
    11    26     3    1
    12    26     2    1
    13     3    31    1
    14     3     7    1
    15    14     6    1
    16    14    23    2
    17     6    15    1
    18     6     1    1
    19    15    41    1
    20    25     7    1
    21    25    13    1
    22    16    43    1
    23    16    11    1
    24    36     7    1
    25     8    11   ar
    26     8    12   ar
    27     7     9    1
    28    20    13    1
    29    20    12   ar
    30    29     2    1
    31     1    28    1
    32     1     2    1
    33     1    27    1
    34     2    30    1
    35    11    17   ar
    36    13    39    1
    37    13    10    1
    38    12    18   ar
    39    38    10    1
    40     9    10    1
    41     9    37    1
    42     9    21    1
    43    10    22    1
    44    17     4   ar
    45    18     4   ar
    46    21    44    1
    47     4    33    1
    48    22    45    1
