@<TRIPOS>MOLECULE
ZJXZSIYSNXKHEA-UHFFFAOYSA-L	6045576	-721.7649065536581
 12 11 0 0 0
SMALL
MULLIKEN NwChem

@<TRIPOS>ATOM
      1 C          -1.3880    1.6640    1.3843 C.3     1  LIG1      -0.46999999999999975
      2 C          -1.6833    0.7809    0.1529 C.3     1  LIG1           0.0
      3 O           0.8793   -2.0513   -0.1803 O.3     1  LIG1      -0.7699999999999996
      4 O           0.5569    0.0606   -1.6920 O.2     1  LIG1      -0.8000000000000007
      5 O           1.3481    0.3344    0.7699 O.3     1  LIG1      -0.7899999999999991
      6 O          -1.1038   -0.4733    0.2571 O.3     1  LIG1      -0.6500000000000004
      7 P           0.6330   -0.5445   -0.2792 P.3     1  LIG1       0.9100000000000001
      8 H          -1.8178    1.2122    2.2930 H       1  LIG1          0.12
      9 H          -1.7970    2.6883    1.2808 H       1  LIG1          0.12
     10 H          -0.2958    1.6795    1.4856 H       1  LIG1       0.16000000000000003
     11 H          -2.7928    0.6781    0.0477 H       1  LIG1       0.08999999999999997
     12 H          -1.3257    1.3053   -0.7528 H       1  LIG1       0.07999999999999996
@<TRIPOS>BOND
     1     4     7    2
     2    12     2    1
     3     7     3    1
     4     7     6    1
     5     7     5    1
     6    11     2    1
     7     2     6    1
     8     2     1    1
     9     9     1    1
    10     1    10    1
    11     1     8    1
