@<TRIPOS>MOLECULE
ZKHQWZAMYRWXGA-KQYNXXCUSA-J	11075290	-2664.645087434008
 43 45 0 0 0
SMALL
MULLIKEN NwChem

@<TRIPOS>ATOM
      1 C          -0.0547    1.4415    1.5787 C.3     1  LIG1       -0.04999999999999982
      2 C          -7.2114   -1.5724    0.2183 C.ar    1  LIG1       0.15000000000000036
      3 C          -4.1766    1.3632   -0.9221 C.ar    1  LIG1       0.21999999999999975
      4 C          -0.9135    0.1797    1.3805 C.3     1  LIG1       0.1200000000000001
      5 C          -6.1819    0.6378   -0.8731 C.ar    1  LIG1       0.20000000000000018
      6 C          -0.5187   -0.7022    0.1706 C.3     1  LIG1       0.04999999999999982
      7 C          -1.8298   -0.8139   -0.6538 C.3     1  LIG1       0.11000000000000032
      8 C          -7.5590    0.3424   -1.0091 C.ar    1  LIG1       0.41000000000000014
      9 C          -5.4143   -0.3007   -0.1521 C.ar    1  LIG1          0.54
     10 C          -2.9123   -0.3962    0.3740 C.3     1  LIG1       0.2599999999999998
     11 N          -8.4332    1.2022   -1.7245 N.pl3   1  LIG1      -0.7699999999999996
     12 N          -8.0592   -0.7846   -0.4605 N.ar    1  LIG1      -0.5199999999999996
     13 N          -5.8820   -1.4236    0.4352 N.ar    1  LIG1        -0.54
     14 N          -5.4026    1.6710   -1.3434 N.ar    1  LIG1      -0.5800000000000001
     15 N          -4.1262    0.1807   -0.2022 N.ar    1  LIG1      -0.5099999999999998
     16 O          -0.1960   -2.0161    0.5902 O.3     1  LIG1      -0.7400000000000002
     17 O          -2.0202   -2.1117   -1.1727 O.3     1  LIG1      -0.6899999999999995
     18 O           7.5635    0.5249   -0.6057 O.3     1  LIG1      -0.8000000000000007
     19 O           6.2860   -0.2670   -2.6993 O.2     1  LIG1      -0.8000000000000007
     20 O           6.3315    2.2229   -2.0698 O.3     1  LIG1      -0.8000000000000007
     21 O           1.5225   -1.1460    2.2787 O.2     1  LIG1        -0.75
     22 O           2.3962    0.8971    3.6052 O.3     1  LIG1      -0.6899999999999995
     23 O           4.7278   -1.8046    0.2629 O.3     1  LIG1      -0.6999999999999993
     24 O           2.6880   -0.6074   -0.8849 O.2     1  LIG1      -0.6899999999999995
     25 O           1.2955    1.2495    1.2883 O.3     1  LIG1      -0.5999999999999996
     26 O          -2.3059    0.5956    1.1717 O.3     1  LIG1      -0.5500000000000007
     27 O           4.9426    0.6487   -0.6359 O.3     1  LIG1      -0.6600000000000001
     28 O           3.5833    0.2393    1.4228 O.3     1  LIG1      -0.6600000000000001
     29 P           6.3855    0.7664   -1.5658 P.3     1  LIG1       0.8699999999999992
     30 P           2.2370    0.2128    2.2673 P.3     1  LIG1       1.1500000000000004
     31 P           3.9831   -0.5525   -0.1082 P.3     1  LIG1       1.0600000000000005
     32 H          -0.4381    2.2036    0.8795 H       1  LIG1       0.15000000000000002
     33 H          -0.2082    1.8244    2.6049 H       1  LIG1          0.14
     34 H          -7.6560   -2.4695    0.6542 H       1  LIG1       0.17000000000000004
     35 H          -3.2869    1.9597   -1.0559 H       1  LIG1       0.21999999999999997
     36 H          -0.8725   -0.4564    2.2691 H       1  LIG1       0.16000000000000003
     37 H           0.3216   -0.2764   -0.3917 H       1  LIG1       0.18000000000000005
     38 H          -1.8375   -0.0839   -1.4759 H       1  LIG1       0.16000000000000003
     39 H          -3.2282   -1.2802    0.9459 H       1  LIG1       0.17000000000000004
     40 H          -9.1474    0.6453   -2.1943 H       1  LIG1          0.36
     41 H          -7.8941    1.7228   -2.4167 H       1  LIG1          0.36
     42 H           0.6539   -1.8584    1.1383 H       1  LIG1       0.43999999999999995
     43 H          -1.3154   -2.6103   -0.6934 H       1  LIG1       0.43000000000000005
@<TRIPOS>BOND
     1    19    29    2
     2    41    11    1
     3    40    11    1
     4    20    29    1
     5    11     8    1
     6    29    27    1
     7    29    18    1
     8    38     7    1
     9    14     3   ar
    10    14     5   ar
    11    17    43    1
    12    17     7    1
    13    35     3    1
    14     8     5   ar
    15     8    12   ar
    16     3    15   ar
    17    24    31    2
    18     5     9   ar
    19     7     6    1
    20     7    10    1
    21    27    31    1
    22    12     2   ar
    23    37     6    1
    24    15     9   ar
    25    15    10    1
    26     9    13   ar
    27    31    23    1
    28    31    28    1
    29     6    16    1
    30     6     4    1
    31     2    13   ar
    32     2    34    1
    33    10    39    1
    34    10    26    1
    35    16    42    1
    36    32     1    1
    37    26     4    1
    38    25     1    1
    39    25    30    1
    40     4     1    1
    41     4    36    1
    42    28    30    1
    43     1    33    1
    44    30    21    2
    45    30    22    1
