@<TRIPOS>MOLECULE
ZKQRGSXITBHHPC-VVQHAZRASA-N	6045578	-1169.3063249767292
 75 78 0 0 0
SMALL
MULLIKEN NwChem

@<TRIPOS>ATOM
      1 C           5.0320    3.4419   -5.3017 C.3     1  LIG1      -0.45999999999999996
      2 C           5.3565    2.6413   -2.9572 C.3     1  LIG1      -0.45999999999999996
      3 C           3.2553    1.0039   -5.8527 C.3     1  LIG1      -0.4800000000000004
      4 C           0.3494    0.3495   -2.8196 C.3     1  LIG1      -0.4900000000000002
      5 C          -3.0209   -2.8136    1.2140 C.3     1  LIG1      -0.4800000000000004
      6 C           0.6746    1.6631    1.7252 C.3     1  LIG1      -0.4900000000000002
      7 C           3.4219    0.3596   -3.4137 C.3     1  LIG1      -0.29000000000000004
      8 C           2.7809    0.7138   -2.0553 C.3     1  LIG1      -0.28000000000000025
      9 C          -3.7405   -0.0341    2.8816 C.2     1  LIG1      -0.23000000000000043
     10 C          -3.0786    0.7248    1.8280 C.2     1  LIG1      -0.2400000000000002
     11 C          -0.2966    2.9012   -0.9635 C.3     1  LIG1      -0.2999999999999998
     12 C          -1.5392    2.3872   -0.1931 C.3     1  LIG1      -0.29000000000000004
     13 C          -1.9690   -2.9698    4.7677 C.3     1  LIG1      -0.2999999999999998
     14 C          -0.2762   -1.5435    0.8305 C.3     1  LIG1      -0.2999999999999998
     15 C          -1.5656   -3.0536    3.2900 C.3     1  LIG1      -0.2999999999999998
     16 C           0.8489   -0.5301    0.4972 C.3     1  LIG1      -0.3099999999999996
     17 C          -4.2517   -2.0932    4.1667 C.3     1  LIG1      -0.3600000000000003
     18 C           4.9612    2.2122   -4.3790 C.3     1  LIG1      -0.05999999999999961
     19 C           3.5726    1.5199   -4.4371 C.3     1  LIG1      -0.04999999999999982
     20 C           1.3466    1.2890   -2.1208 C.3     1  LIG1      -0.08000000000000007
     21 C          -3.4328   -1.3162    3.1572 C.2     1  LIG1      0.13999999999999968
     22 C          -3.4768   -3.1989    4.9097 C.3     1  LIG1       0.13999999999999968
     23 C          -1.9460    0.2676    1.2693 C.2     1  LIG1      0.16999999999999993
     24 C           0.8716    1.8723   -0.7548 C.3     1  LIG1      -0.08999999999999986
     25 C          -1.1950    0.9374    0.1549 C.3     1  LIG1      -0.17999999999999972
     26 C          -1.3052   -0.9930    1.8373 C.3     1  LIG1      -0.1900000000000004
     27 C          -2.3325   -2.0414    2.3670 C.3     1  LIG1      0.08000000000000007
     28 C           0.3427    0.9405    0.3959 C.3     1  LIG1      0.11000000000000032
     29 O          -3.8736   -4.4469    4.3179 O.3     1  LIG1      -0.6799999999999997
     30 H           4.2695    4.1798   -5.0162 H       1  LIG1          0.14
     31 H           4.8794    3.1943   -6.3563 H       1  LIG1       0.15000000000000002
     32 H           6.0090    3.9326   -5.2184 H       1  LIG1          0.14
     33 H           4.6163    3.3361   -2.5432 H       1  LIG1          0.14
     34 H           5.4454    1.7930   -2.2722 H       1  LIG1       0.15000000000000002
     35 H           6.3237    3.1555   -2.9687 H       1  LIG1          0.14
     36 H           3.9913    0.2527   -6.1689 H       1  LIG1          0.14
     37 H           2.2669    0.5302   -5.8767 H       1  LIG1       0.15000000000000002
     38 H           3.2489    1.8043   -6.5990 H       1  LIG1       0.15000000000000002
     39 H           0.2582   -0.6175   -2.3127 H       1  LIG1       0.15000000000000002
     40 H          -0.6500    0.7974   -2.8703 H       1  LIG1       0.15000000000000002
     41 H           0.6626    0.1496   -3.8501 H       1  LIG1       0.15000000000000002
     42 H          -2.2948   -3.4350    0.6751 H       1  LIG1       0.15000000000000002
     43 H          -3.7905   -3.4800    1.6174 H       1  LIG1       0.15000000000000002
     44 H          -3.4860   -2.1229    0.5011 H       1  LIG1          0.14
     45 H           1.7625    1.7139    1.8540 H       1  LIG1       0.15000000000000002
     46 H           0.2900    2.6881    1.7452 H       1  LIG1       0.15000000000000002
     47 H           0.2615    1.1393    2.5915 H       1  LIG1       0.15000000000000002
     48 H           2.8315   -0.4449   -3.8692 H       1  LIG1          0.13
     49 H           4.4095   -0.0844   -3.2263 H       1  LIG1          0.13
     50 H           2.7982   -0.1893   -1.4347 H       1  LIG1          0.14
     51 H           3.4075    1.4453   -1.5316 H       1  LIG1          0.13
     52 H          -4.5533    0.4479    3.4249 H       1  LIG1          0.12
     53 H          -3.5334    1.6552    1.4950 H       1  LIG1          0.13
     54 H          -0.0036    3.8985   -0.6175 H       1  LIG1          0.14
     55 H          -0.5182    3.0042   -2.0314 H       1  LIG1          0.14
     56 H          -2.4607    2.4651   -0.7811 H       1  LIG1          0.14
     57 H          -1.6990    2.9642    0.7252 H       1  LIG1          0.14
     58 H          -1.7199   -1.9842    5.1837 H       1  LIG1          0.14
     59 H          -1.4066   -3.7134    5.3519 H       1  LIG1          0.14
     60 H          -0.7995   -1.8108   -0.0964 H       1  LIG1       0.15000000000000002
     61 H           0.1754   -2.4720    1.1995 H       1  LIG1          0.14
     62 H          -1.7517   -4.0776    2.9492 H       1  LIG1          0.14
     63 H          -0.4852   -2.8913    3.2080 H       1  LIG1       0.15000000000000002
     64 H           1.3118   -0.8571   -0.4333 H       1  LIG1       0.15000000000000002
     65 H           1.6355   -0.5881    1.2606 H       1  LIG1          0.13
     66 H          -4.6748   -1.3837    4.8887 H       1  LIG1       0.16000000000000003
     67 H          -5.1092   -2.5776    3.6778 H       1  LIG1       0.16000000000000003
     68 H           5.7064    1.4791   -4.7281 H       1  LIG1          0.12
     69 H           2.8259    2.2932   -4.2034 H       1  LIG1          0.13
     70 H           1.4149    2.1818   -2.7593 H       1  LIG1          0.13
     71 H          -3.7629   -3.1987    5.9725 H       1  LIG1          0.13
     72 H           1.7452    2.4126   -0.3676 H       1  LIG1          0.12
     73 H          -1.3582    0.3344   -0.7505 H       1  LIG1       0.15000000000000002
     74 H          -0.7436   -0.6737    2.7340 H       1  LIG1          0.14
     75 H          -3.3395   -5.1505    4.7204 H       1  LIG1       0.42000000000000004
@<TRIPOS>BOND
     1    38     3    1
     2    31     1    1
     3    36     3    1
     4    37     3    1
     5     3    19    1
     6     1    32    1
     7     1    30    1
     8     1    18    1
     9    68    18    1
    10    19    18    1
    11    19    69    1
    12    19     7    1
    13    18     2    1
    14    48     7    1
    15    41     4    1
    16     7    49    1
    17     7     8    1
    18    35     2    1
    19     2    33    1
    20     2    34    1
    21    40     4    1
    22     4    39    1
    23     4    20    1
    24    70    20    1
    25    20     8    1
    26    20    24    1
    27     8    51    1
    28     8    50    1
    29    55    11    1
    30    11    24    1
    31    11    54    1
    32    11    12    1
    33    56    12    1
    34    24    72    1
    35    24    28    1
    36    73    25    1
    37    64    16    1
    38    12    25    1
    39    12    57    1
    40    60    14    1
    41    25    28    1
    42    25    23    1
    43    28    16    1
    44    28     6    1
    45    16    14    1
    46    16    65    1
    47    44     5    1
    48    42     5    1
    49    14    61    1
    50    14    26    1
    51     5    43    1
    52     5    27    1
    53    23    10    2
    54    23    26    1
    55    53    10    1
    56     6    46    1
    57     6    45    1
    58     6    47    1
    59    10     9    1
    60    26    27    1
    61    26    74    1
    62    27    21    1
    63    27    15    1
    64     9    21    2
    65     9    52    1
    66    62    15    1
    67    21    17    1
    68    63    15    1
    69    15    13    1
    70    67    17    1
    71    17    66    1
    72    17    22    1
    73    29    75    1
    74    29    22    1
    75    13    22    1
    76    13    58    1
    77    13    59    1
    78    22    71    1
