@<TRIPOS>MOLECULE
ZKZBPNGNEQAJSX-REOHCLBHSA-N	6045580	-2724.8947517754623
 14 13 0 0 0
SMALL
MULLIKEN NwChem

@<TRIPOS>ATOM
      1 C           0.2992    0.9629   -0.6588 C.3     1  LIG1       -0.3700000000000001
      2 CA         -0.2177   -0.4006   -1.1353 C.3     1  LIG1       -0.07000000000000028
      3 C           0.2664   -1.5532   -0.2444 C.2     1  LIG1       0.5899999999999999
      4 N          -1.6585   -0.3850   -1.3235 N.3     1  LIG1         -0.75
      5 OXT        -0.4228   -2.4754    0.1261 O.2     1  LIG1       -0.5099999999999998
      6 O           1.5865   -1.4518    0.0576 O.3     1  LIG1       -0.5800000000000001
      7 SE         -0.3120    1.4944    1.1645 Se      1  LIG1       -0.18999999999999773
      8 H          -0.0949    1.7385   -1.3188 H       1  LIG1       0.20999999999999996
      9 H           1.3882    0.9992   -0.6663 H       1  LIG1       0.20999999999999996
     10 HA          0.2528   -0.5777   -2.1162 H       1  LIG1       0.20999999999999996
     11 H1         -1.9672   -1.3253   -1.5662 H       1  LIG1       0.32999999999999996
     12 H2         -2.0962   -0.1845   -0.4229 H       1  LIG1       0.33999999999999997
     13 H           1.8107   -2.2401    0.5878 H       1  LIG1       0.44999999999999996
     14 H           0.5815    0.5365    1.8584 H       1  LIG1           0.13
@<TRIPOS>BOND
     1    10     2    1
     2    11     4    1
     3     4     2    1
     4     4    12    1
     5     8     1    1
     6     2     1    1
     7     2     3    1
     8     9     1    1
     9     1     7    1
    10     3     6    1
    11     3     5    2
    12     6    13    1
    13     7    14    1
