@<TRIPOS>MOLECULE
ZLQSSFNCEUGGJF-NUESBDPTSA-N	6045581	-1243.2619109265656
 74 77 0 0 0
SMALL
MULLIKEN NwChem

@<TRIPOS>ATOM
      1 C           0.0523   -0.0714    6.7599 C.3     1  LIG1      -0.5300000000000002
      2 C           0.5756    2.3087    7.4712 C.3     1  LIG1      -0.5199999999999996
      3 C           3.8847    1.5842    2.7882 C.3     1  LIG1      -0.4800000000000004
      4 C           3.1439   -0.1863    0.2297 C.3     1  LIG1      -0.4900000000000002
      5 C          -3.0761   -0.0585   -1.9198 C.3     1  LIG1      -0.4800000000000004
      6 C           2.6783   -0.0358    5.1219 C.3     1  LIG1      -0.3200000000000003
      7 C           2.1498    1.0880    5.9804 C.2     1  LIG1      -0.1900000000000004
      8 C           2.1216   -0.0181    3.6788 C.3     1  LIG1      -0.2699999999999996
      9 C           0.3596    0.8972   -3.2411 C.3     1  LIG1      -0.33999999999999986
     10 C          -0.8630    0.5047   -4.0772 C.3     1  LIG1      -0.29000000000000004
     11 C           1.6369    2.7364    0.8816 C.3     1  LIG1      -0.29000000000000004
     12 C           0.8181    2.5171   -0.3888 C.3     1  LIG1      -0.28000000000000025
     13 C          -0.6662   -0.6407    0.1791 C.3     1  LIG1      -0.3600000000000003
     14 C          -3.0785   -3.0814   -2.8211 C.3     1  LIG1      -0.29000000000000004
     15 C           0.7757   -0.8999    0.6364 C.3     1  LIG1      -0.2999999999999998
     16 C          -2.1177   -2.4012   -1.8311 C.3     1  LIG1      -0.3200000000000003
     17 C          -3.5634   -0.8022   -4.8941 C.3     1  LIG1       0.11000000000000032
     18 C           1.0078    1.0949    6.6844 C.2     1  LIG1      0.16999999999999993
     19 C           2.3766    1.2865    2.8983 C.3     1  LIG1      -0.05999999999999961
     20 C           0.2627    0.4737   -1.7907 C.2     1  LIG1      0.09999999999999964
     21 C          -2.2836   -1.5683   -4.6992 C.3     1  LIG1       -0.23000000000000043
     22 C           1.5502    1.3701    1.5837 C.3     1  LIG1      -0.1200000000000001
     23 C           1.2845    1.1201   -0.8808 C.3     1  LIG1      -0.20000000000000018
     24 C          -1.3298   -0.8920   -3.6633 C.3     1  LIG1      -0.1299999999999999
     25 C          -0.6899   -0.3446   -1.3085 C.2     1  LIG1      0.08000000000000007
     26 C          -2.5772   -3.0292   -4.2675 C.3     1  LIG1       0.1299999999999999
     27 C           1.7037    0.3181    0.4208 C.3     1  LIG1      0.13999999999999968
     28 C          -1.8138   -0.9186   -2.1827 C.3     1  LIG1      0.05999999999999961
     29 O          -3.5032   -0.0071   -5.9314 O.3     1  LIG1         -0.5
     30 O          -1.4297   -3.8530   -4.4764 O.3     1  LIG1      -0.6799999999999997
     31 H          -0.1235   -0.3627    7.8050 H       1  LIG1       0.16000000000000003
     32 H           0.4022   -0.9530    6.2172 H       1  LIG1       0.16000000000000003
     33 H          -0.9279    0.2069    6.3481 H       1  LIG1       0.16000000000000003
     34 H           1.2932    3.1311    7.3869 H       1  LIG1       0.16000000000000003
     35 H          -0.4022    2.6735    7.1250 H       1  LIG1       0.16000000000000003
     36 H           0.4559    2.0672    8.5371 H       1  LIG1       0.16000000000000003
     37 H           4.4558    0.7195    2.4381 H       1  LIG1       0.15000000000000002
     38 H           4.0910    2.4187    2.1113 H       1  LIG1       0.15000000000000002
     39 H           4.2868    1.8622    3.7687 H       1  LIG1       0.15000000000000002
     40 H           3.8569    0.6399    0.1420 H       1  LIG1       0.15000000000000002
     41 H           3.4659   -0.8259    1.0581 H       1  LIG1       0.15000000000000002
     42 H           3.2072   -0.7812   -0.6903 H       1  LIG1          0.14
     43 H          -2.8651    1.0033   -2.0786 H       1  LIG1       0.15000000000000002
     44 H          -3.9068   -0.3356   -2.5746 H       1  LIG1       0.15000000000000002
     45 H          -3.3902   -0.1744   -0.8753 H       1  LIG1          0.14
     46 H           3.7735    0.0156    5.0932 H       1  LIG1          0.14
     47 H           2.4371   -1.0090    5.5662 H       1  LIG1          0.14
     48 H           2.7500    1.9988    5.9879 H       1  LIG1          0.13
     49 H           2.5490   -0.8680    3.1309 H       1  LIG1          0.14
     50 H           1.0382   -0.1902    3.7352 H       1  LIG1          0.14
     51 H           1.2665    0.4463   -3.6759 H       1  LIG1       0.15000000000000002
     52 H           0.5228    1.9828   -3.2942 H       1  LIG1       0.15000000000000002
     53 H          -0.6047    0.5224   -5.1451 H       1  LIG1          0.14
     54 H          -1.6722    1.2308   -3.9405 H       1  LIG1       0.15000000000000002
     55 H           2.6748    2.9738    0.6139 H       1  LIG1          0.14
     56 H           1.2671    3.5542    1.5115 H       1  LIG1          0.13
     57 H          -0.2524    2.4878   -0.1469 H       1  LIG1          0.13
     58 H           0.9599    3.2936   -1.1485 H       1  LIG1          0.14
     59 H          -1.2859   -1.5054    0.4303 H       1  LIG1          0.14
     60 H          -1.0919    0.2027    0.7441 H       1  LIG1       0.15000000000000002
     61 H          -3.2187   -4.1317   -2.5401 H       1  LIG1       0.15000000000000002
     62 H          -4.0594   -2.5962   -2.7818 H       1  LIG1       0.15000000000000002
     63 H           1.1574   -1.7525    0.0593 H       1  LIG1          0.12
     64 H           0.7910   -1.2007    1.6882 H       1  LIG1          0.14
     65 H          -2.5504   -2.4741   -0.8283 H       1  LIG1       0.15000000000000002
     66 H          -1.1679   -2.9573   -1.7851 H       1  LIG1          0.14
     67 H          -2.6379   -0.0510   -6.4267 H       1  LIG1       0.42000000000000004
     68 H           1.9529    2.0960    3.5120 H       1  LIG1          0.12
     69 H          -1.7121   -1.6173   -5.6526 H       1  LIG1          0.13
     70 H           0.5040    1.2823    1.9181 H       1  LIG1          0.12
     71 H           2.1970    1.2852   -1.4719 H       1  LIG1          0.13
     72 H          -0.4302   -1.5280   -3.6865 H       1  LIG1          0.14
     73 H          -3.3383   -3.4521   -4.9320 H       1  LIG1          0.14
     74 H          -0.7779   -3.6401   -3.7913 H       1  LIG1       0.43000000000000005
@<TRIPOS>BOND
     1    67    29    1
     2    29    17    1
     3    69    21    1
     4    53    10    1
     5    73    26    1
     6    17    21    1
     7    21    26    1
     8    21    24    1
     9    30    26    1
    10    30    74    1
    11    26    14    1
    12    10    54    1
    13    10    24    1
    14    10     9    1
    15    72    24    1
    16    51     9    1
    17    24    28    1
    18    52     9    1
    19     9    20    1
    20    14    62    1
    21    14    61    1
    22    14    16    1
    23    44     5    1
    24    28     5    1
    25    28    16    1
    26    28    25    1
    27    43     5    1
    28     5    45    1
    29    16    66    1
    30    16    65    1
    31    20    25    2
    32    20    23    1
    33    71    23    1
    34    25    13    1
    35    58    12    1
    36    23    12    1
    37    23    27    1
    38    42     4    1
    39    12    57    1
    40    12    11    1
    41    63    15    1
    42    40     4    1
    43    13    59    1
    44    13    15    1
    45    13    60    1
    46     4    27    1
    47     4    41    1
    48    27    15    1
    49    27    22    1
    50    55    11    1
    51    15    64    1
    52    11    56    1
    53    11    22    1
    54    22    70    1
    55    22    19    1
    56    38     3    1
    57    37     3    1
    58     3    19    1
    59     3    39    1
    60    19    68    1
    61    19     8    1
    62    49     8    1
    63     8    50    1
    64     8     6    1
    65    46     6    1
    66     6    47    1
    67     6     7    1
    68     7    48    1
    69     7    18    2
    70    32     1    1
    71    33     1    1
    72    18     1    1
    73    18     2    1
    74     1    31    1
    75    35     2    1
    76    34     2    1
    77     2    36    1
