@<TRIPOS>MOLECULE
ZMJGSOSNSPKHNH-UHFFFAOYSA-M	6045583	-1139.1341061527485
 28 28 0 0 0
SMALL
MULLIKEN NwChem

@<TRIPOS>ATOM
      1 C           1.6159    3.7886   -1.4245 C.3     1  LIG1      -0.5199999999999996
      2 C           1.5795   -1.1213   -0.6102 C.3     1  LIG1      -0.2400000000000002
      3 C           0.3359    1.8477    1.4339 C.ar    1  LIG1       -0.09999999999999964
      4 C           0.1086   -0.5742    2.0703 C.3     1  LIG1       -0.1200000000000001
      5 C           1.2627    2.6319   -0.5272 C.ar    1  LIG1       0.21999999999999975
      6 C           0.5708    0.5095    1.1131 C.ar    1  LIG1       0.08000000000000007
      7 C           1.2319    0.2446   -0.0925 C.ar    1  LIG1      0.009999999999999787
      8 C           1.5085    1.3027   -1.0136 C.ar    1  LIG1       0.3200000000000003
      9 N           0.7723   -1.2932   -1.8748 N.4     1  LIG1       -0.7800000000000002
     10 N           0.7035    2.8831    0.6555 N.ar    1  LIG1      -0.5300000000000002
     11 O           1.9274    1.0581   -2.2161 O.3     1  LIG1        -0.75
     12 O          -1.6054   -1.6360   -0.8446 O.2     1  LIG1      -0.6999999999999993
     13 O          -2.3715   -3.2346    0.9454 O.3     1  LIG1      -0.6999999999999993
     14 O          -2.7678   -0.7084    1.3548 O.3     1  LIG1      -0.6899999999999995
     15 O          -0.4064   -1.7566    1.4457 O.3     1  LIG1      -0.5800000000000001
     16 P          -1.8769   -1.6812    0.6489 P.3     1  LIG1       1.0899999999999999
     17 H           1.3907    4.7358   -0.9248 H       1  LIG1          0.14
     18 H           1.0568    3.7310   -2.3682 H       1  LIG1       0.16000000000000003
     19 H           2.6779    3.7638   -1.7044 H       1  LIG1       0.15000000000000002
     20 H           2.6331   -1.1581   -0.9113 H       1  LIG1       0.18000000000000005
     21 H           1.3341   -1.9314    0.0719 H       1  LIG1       0.19999999999999996
     22 H          -0.1881    2.1027    2.3550 H       1  LIG1          0.13
     23 H           0.9489   -0.9298    2.6836 H       1  LIG1       0.17000000000000004
     24 H          -0.6510   -0.1553    2.7410 H       1  LIG1       0.16000000000000003
     25 H           1.0468   -0.4110   -2.4055 H       1  LIG1          0.4
     26 H           1.0246   -2.1316   -2.3994 H       1  LIG1          0.4
     27 H          -0.2634   -1.3534   -1.5653 H       1  LIG1      0.43999999999999995
     28 H          -2.8150   -3.2079    1.8076 H       1  LIG1       0.44999999999999996
@<TRIPOS>BOND
     1    25     9    1
     2    26     9    1
     3    18     1    1
     4    11     8    1
     5     9    27    1
     6     9     2    1
     7    19     1    1
     8     1    17    1
     9     1     5    1
    10     8     5   ar
    11     8     7   ar
    12    20     2    1
    13    12    16    2
    14     2     7    1
    15     2    21    1
    16     5    10   ar
    17     7     6   ar
    18    16    13    1
    19    16    14    1
    20    16    15    1
    21    10     3   ar
    22    13    28    1
    23     6     3   ar
    24     6     4    1
    25     3    22    1
    26    15     4    1
    27     4    23    1
    28     4    24    1
