@<TRIPOS>MOLECULE
ZMZDMBWJUHKJPS-UHFFFAOYSA-M	6045584	-491.1966803100833
 3 2 0 0 0
SMALL
MULLIKEN NwChem

@<TRIPOS>ATOM
      1 C          -0.6261   -0.0000   -0.0000 C.1     1  LIG1       0.11000000000000032
      2 N          -1.8069    0.0000    0.0000 N.1     1  LIG1      -0.5800000000000001
      3 S           1.0511    0.0000    0.0000 S.3     1  LIG1       -0.5199999999999996
@<TRIPOS>BOND
     1     1     2    3
     2     1     3    1
