@<TRIPOS>MOLECULE
ZNWYDQPOUQRDLY-WHFBIAKZSA-N	6045585	-3086.6556253300137
 28 27 0 0 0
SMALL
MULLIKEN NwChem

@<TRIPOS>ATOM
      1 C          -1.1195   -0.8052    0.5956 C.3     1  LIG1       -0.29000000000000004
      2 C          -1.6742    0.4841   -0.0067 C.3     1  LIG1       -0.3799999999999999
      3 C           1.0928    0.9655   -1.2547 C.3     1  LIG1       -0.3799999999999999
      4 CA         -1.3316   -2.0379   -0.3062 C.3     1  LIG1       -0.05999999999999961
      5 CA          1.6457    2.1206   -0.4088 C.3     1  LIG1       -0.040000000000000036
      6 C          -0.5237   -3.2083    0.2458 C.2     1  LIG1       0.5700000000000003
      7 C           1.0487    2.0819    0.9972 C.2     1  LIG1       0.5999999999999996
      8 N          -2.7546   -2.3295   -0.4381 N.3     1  LIG1       -0.7400000000000002
      9 N           3.1082    1.9921   -0.3580 N.3     1  LIG1         -0.75
     10 OXT        -0.9894   -4.1988    0.7662 O.2     1  LIG1       -0.5099999999999998
     11 O           0.8119   -3.0072    0.1074 O.3     1  LIG1       -0.5800000000000001
     12 OXT         1.2579    1.1899    1.7950 O.2     1  LIG1       -0.5099999999999998
     13 O           0.2853    3.1589    1.2874 O.3     1  LIG1       -0.5800000000000001
     14 SE         -0.8332    1.0651   -1.7203 Se      1  LIG1       -0.04999999999999716
     15 H          -1.6396   -0.9827    1.5489 H       1  LIG1       0.17000000000000004
     16 H          -0.0618   -0.6912    0.8435 H       1  LIG1       0.18000000000000005
     17 H          -2.7242    0.3491   -0.2789 H       1  LIG1       0.18999999999999995
     18 H          -1.5981    1.3086    0.7048 H       1  LIG1       0.18999999999999995
     19 H           1.2934    0.0058   -0.7692 H       1  LIG1       0.19999999999999996
     20 H           1.6139    0.9703   -2.2149 H       1  LIG1       0.19999999999999996
     21 HA         -0.9284   -1.8008   -1.2978 H       1  LIG1       0.18999999999999995
     22 HA          1.3930    3.0734   -0.8799 H       1  LIG1       0.18000000000000005
     23 H1         -2.8964   -3.0060   -1.1862 H       1  LIG1       0.32999999999999996
     24 H2         -3.0653   -2.8015    0.4117 H       1  LIG1       0.31999999999999995
     25 H1          3.5150    2.8167    0.0825 H       1  LIG1       0.33999999999999997
     26 H2          3.3420    1.2014    0.2432 H       1  LIG1       0.32999999999999996
     27 H           1.2540   -3.7774    0.5121 H       1  LIG1       0.44999999999999996
     28 H          -0.0240    3.0421    2.2067 H       1  LIG1       0.44999999999999996
@<TRIPOS>BOND
     1    20     3    1
     2    14     3    1
     3    14     2    1
     4    21     4    1
     5     3    19    1
     6     3     5    1
     7    23     8    1
     8    22     5    1
     9     8     4    1
    10     8    24    1
    11     5     9    1
    12     5     7    1
    13     9    25    1
    14     9    26    1
    15     4     6    1
    16     4     1    1
    17    17     2    1
    18     2     1    1
    19     2    18    1
    20    11     6    1
    21    11    27    1
    22     6    10    2
    23     1    16    1
    24     1    15    1
    25     7    13    1
    26     7    12    2
    27    13    28    1
