@<TRIPOS>MOLECULE
ZOAMBXDOGPRZLP-UHFFFAOYSA-N	6045586	-571.6813881662362
 23 24 0 0 0
SMALL
MULLIKEN NwChem

@<TRIPOS>ATOM
      1 C           2.5428   -0.0565   -1.3129 C.ar    1  LIG1      -0.16999999999999993
      2 C           2.6441    1.3336   -1.5359 C.ar    1  LIG1      -0.17999999999999972
      3 C           1.5099   -0.5850   -0.5492 C.ar    1  LIG1      -0.23000000000000043
      4 C           1.7188    2.2221   -0.9965 C.ar    1  LIG1      -0.1900000000000004
      5 C          -1.1468   -1.2187    1.3044 C.3     1  LIG1       -0.4299999999999997
      6 C          -1.1428    1.3399    1.0449 C.ar    1  LIG1       -0.009999999999999787
      7 C          -0.6121    0.0940    0.8246 C.ar    1  LIG1      0.03000000000000025
      8 C           0.5626    0.2889    0.0105 C.ar    1  LIG1       0.07000000000000028
      9 C           0.6841    1.6849   -0.2259 C.ar    1  LIG1       0.2999999999999998
     10 C          -1.7049   -2.0979    0.1929 C.3     1  LIG1       0.4900000000000002
     11 N          -1.9129   -1.8249   -1.0304 N.3     1  LIG1      -0.7000000000000002
     12 N          -0.3720    2.2995    0.4172 N.ar    1  LIG1      -0.6799999999999997
     13 O          -2.0035   -3.3340    0.6700 O.3     1  LIG1      -0.6099999999999994
     14 H           3.2820   -0.7201   -1.7521 H       1  LIG1          0.14
     15 H           3.4593    1.7177   -2.1428 H       1  LIG1       0.15000000000000002
     16 H           1.4253   -1.6564   -0.3915 H       1  LIG1       0.15000000000000002
     17 H           1.7957    3.2920   -1.1709 H       1  LIG1       0.16000000000000003
     18 H          -0.3682   -1.7986    1.8165 H       1  LIG1       0.18999999999999995
     19 H          -1.9420   -1.0746    2.0454 H       1  LIG1       0.19999999999999996
     20 H          -2.0245    1.6219    1.6072 H       1  LIG1       0.18999999999999995
     21 H          -1.6328   -0.8629   -1.2244 H       1  LIG1       0.31999999999999995
     22 H          -0.5456    3.2920    0.4407 H       1  LIG1          0.37
     23 H          -2.3842   -3.8220   -0.0836 H       1  LIG1       0.43999999999999995
@<TRIPOS>BOND
     1    15     2    1
     2    14     1    1
     3     2     1   ar
     4     2     4   ar
     5     1     3   ar
     6    21    11    1
     7    17     4    1
     8    11    10    1
     9     4     9   ar
    10     3    16    1
    11     3     8   ar
    12     9     8   ar
    13     9    12   ar
    14    23    13    1
    15     8     7   ar
    16    10    13    1
    17    10     5    1
    18    12    22    1
    19    12     6   ar
    20     7     6   ar
    21     7     5    1
    22     6    20    1
    23     5    18    1
    24     5    19    1
