@<TRIPOS>MOLECULE
ZOIIDZWLSVVTGQ-WDSKDSINSA-M	6045587	-1534.7449185048129
 39 39 0 0 0
SMALL
MULLIKEN NwChem

@<TRIPOS>ATOM
      1 C           1.5939   -3.1175    0.4213 C.3     1  LIG1      -0.2599999999999998
      2 C           0.4429   -2.3985    1.1488 C.3     1  LIG1       -0.3099999999999996
      3 C          -1.9995    3.8683    1.0928 C.3     1  LIG1         -0.25
      4 C          -2.2881    0.6502    0.2481 C.3     1  LIG1       -0.45999999999999996
      5 CA          1.4163   -3.1275   -1.1130 C.3     1  LIG1       -0.04999999999999982
      6 C          -1.0264    1.1052    1.0166 C.3     1  LIG1       -0.019999999999999574
      7 C           0.1305   -1.0659    0.4936 C.3     1  LIG1       0.1200000000000001
      8 C          -0.7943    4.7510    0.7946 C.2     1  LIG1       0.5899999999999999
      9 C          -1.4054    1.9184    2.2713 C.2     1  LIG1           0.5
     10 C           2.5117   -3.9004   -1.8167 C.2     1  LIG1       0.5999999999999996
     11 N           0.1183   -3.6925   -1.4864 N.3     1  LIG1        -0.79
     12 N          -1.8681    3.1080    2.3217 N.2     1  LIG1      -0.5099999999999998
     13 N          -0.2553   -0.0693    1.4870 N.4     1  LIG1      -0.34999999999999964
     14 N          -0.6080    0.0053   -2.0098 N.4     1  LIG1      -0.4900000000000002
     15 O           1.1195   -0.0427    0.9709 O.3     1  LIG1      -0.4800000000000004
     16 O          -0.8428    5.8925    0.3853 O.2     1  LIG1      -0.5099999999999998
     17 O           0.3752    4.0956    0.9839 O.3     1  LIG1      -0.5700000000000003
     18 O          -1.2344    1.2387    3.4168 O.2     1  LIG1      -0.6300000000000008
     19 O           2.3639   -4.6690   -2.7462 O.2     1  LIG1      -0.5199999999999996
     20 OXT         3.7509   -3.6053   -1.3353 O.3     1  LIG1      -0.5899999999999999
     21 O           0.5110    0.9248   -1.8231 O.3     1  LIG1      -0.5999999999999996
     22 S          -2.1414    0.7382   -1.6054 S.3     1  LIG1      0.14000000000000057
     23 H           1.6751   -4.1524    0.7786 H       1  LIG1          0.14
     24 H           2.5363   -2.6098    0.6528 H       1  LIG1       0.15000000000000002
     25 H          -0.4606   -3.0236    1.1016 H       1  LIG1          0.13
     26 H           0.7130   -2.2872    2.2130 H       1  LIG1       0.10999999999999999
     27 H          -2.1482    3.2778    0.1721 H       1  LIG1       0.19999999999999996
     28 H          -2.8535    4.5476    1.1744 H       1  LIG1       0.18999999999999995
     29 H          -2.5382   -0.3689    0.5587 H       1  LIG1       0.20999999999999996
     30 H          -3.1485    1.2856    0.4864 H       1  LIG1       0.20999999999999996
     31 HA          1.5416   -2.0836   -1.4555 H       1  LIG1       0.18000000000000005
     32 H          -0.3933    1.7250    0.3811 H       1  LIG1       0.18999999999999995
     33 H1          0.1175   -3.8683   -2.4898 H       1  LIG1       0.31999999999999995
     34 H2         -0.5780   -2.9679   -1.3150 H       1  LIG1       0.32999999999999996
     35 H          -0.4254   -0.6840   -1.1967 H       1  LIG1       0.31999999999999995
     36 H           1.0790    4.7079    0.7019 H       1  LIG1       0.44999999999999996
     37 H          -0.7528    0.4137    3.1182 H       1  LIG1       0.43999999999999995
     38 HXT         4.3672   -4.1126   -1.8950 H       1  LIG1       0.43999999999999995
     39 H           0.8598    0.6949   -0.9335 H       1  LIG1       0.43000000000000005
@<TRIPOS>BOND
     1    19    10    2
     2    33    11    1
     3    14    21    1
     4    14    22    1
     5    14    35    1
     6    38    20    1
     7    21    39    1
     8    10    20    1
     9    10     5    1
    10    22     4    1
    11    11    34    1
    12    11     5    1
    13    31     5    1
    14     5     1    1
    15    27     3    1
    16     4    30    1
    17     4    29    1
    18     4     6    1
    19    32     6    1
    20    16     8    2
    21     1    24    1
    22     1    23    1
    23     1     2    1
    24     7    15    1
    25     7     2    1
    26     7    13    1
    27    36    17    1
    28     8    17    1
    29     8     3    1
    30    15    13    1
    31     6    13    1
    32     6     9    1
    33     3    28    1
    34     3    12    1
    35    25     2    1
    36     2    26    1
    37     9    12    2
    38     9    18    1
    39    37    18    1
