@<TRIPOS>MOLECULE
ZQISRDCJNBUVMM-YFKPBYRVSA-O	6045589	-475.04812062389755
 22 22 0 0 0
SMALL
MULLIKEN NwChem

@<TRIPOS>ATOM
      1 CB          0.1662    0.1578   -1.6137 C.3     1  HIS1      -0.3700000000000001
      2 CD2        -1.3484    1.3153    0.1797 C.ar    1  HIS1       -0.08999999999999986
      3 C           1.2205   -1.8010   -0.2470 C.3     1  HIS1       -0.07000000000000028
      4 CE1         0.1427    2.0362    1.5331 C.ar    1  HIS1       0.1900000000000004
      5 CA          0.2108   -1.3609   -1.3373 C.3     1  HIS1      -0.019999999999999574
      6 CG         -0.1492    0.9829   -0.4063 C.ar    1  HIS1       0.2599999999999998
      7 N          -1.1443   -1.8047   -0.7928 N.4     1  HIS1       -0.7300000000000004
      8 NE2        -1.1564    1.9619    1.3796 N.ar    1  HIS1      -0.4800000000000004
      9 ND1         0.8163    1.4239    0.4969 N.ar    1  HIS1      -0.6100000000000003
     10 O           0.6819   -1.5722    1.0470 O.3     1  HIS1      -0.6600000000000001
     11 HB1        -0.5761    0.3574   -2.3969 H       1  HIS1       0.20999999999999996
     12 HB2         1.1360    0.4299   -2.0475 H       1  HIS1       0.20999999999999996
     13 HD2        -2.3476    1.1511   -0.2077 H       1  HIS1       0.17000000000000004
     14 H1          1.4076   -2.8767   -0.3215 H       1  HIS1       0.18999999999999995
     15 H2          2.1743   -1.2862   -0.4109 H       1  HIS1       0.19999999999999996
     16 HE1         0.6609    2.5122    2.3551 H       1  HIS1       0.19999999999999996
     17 HA          0.3788   -1.9059   -2.2701 H       1  HIS1       0.22999999999999998
     18 H1         -1.9349   -1.3244   -1.2336 H       1  HIS1      0.44999999999999996
     19 H2         -1.2846   -2.8173   -0.8818 H       1  HIS1      0.44999999999999996
     20 H3         -1.1155   -1.5753    0.2218 H       1  HIS1      0.43000000000000005
     21 HD1         1.8011    1.5467    0.2920 H       1  HIS1           0.4
     22 H           0.8693   -0.6564    1.3196 H       1  HIS1       0.44999999999999996
@<TRIPOS>BOND
     1    11     1    1
     2    17     5    1
     3    12     1    1
     4     1     5    1
     5     1     6    1
     6     5     7    1
     7     5     3    1
     8    18     7    1
     9    19     7    1
    10     7    20    1
    11    15     3    1
    12     6     2   ar
    13     6     9   ar
    14    14     3    1
    15     3    10    1
    16    13     2    1
    17     2     8   ar
    18    21     9    1
    19     9     4   ar
    20    10    22    1
    21     8     4   ar
    22     4    16    1
