@<TRIPOS>MOLECULE
ZQPPMHVWECSIRJ-KTKRTIGZSA-M	6045590	-855.9852154753727
 53 52 0 0 0
SMALL
MULLIKEN NwChem

@<TRIPOS>ATOM
      1 C           3.7764    7.6856   -1.7721 C.3     1  LIG1      -0.45999999999999996
      2 C           4.0274    6.2884   -2.3519 C.3     1  LIG1        -0.25
      3 C           4.2919    5.2093   -1.2878 C.3     1  LIG1      -0.2599999999999998
      4 C           3.1595    5.0060   -0.2656 C.3     1  LIG1      -0.2699999999999996
      5 C           1.7903    4.6526   -0.8723 C.3     1  LIG1      -0.2699999999999996
      6 C           1.7750    3.3963   -1.7607 C.3     1  LIG1      -0.2699999999999996
      7 C           2.2790    2.1118   -1.0814 C.3     1  LIG1      -0.2599999999999998
      8 C           1.5092    1.7100    0.1968 C.3     1  LIG1      -0.3200000000000003
      9 C           0.0271    1.5240   -0.0252 C.2     1  LIG1      -0.1299999999999999
     10 C          -0.6025    0.3591   -0.2243 C.2     1  LIG1      -0.1299999999999999
     11 C           0.0203   -1.0133   -0.2250 C.3     1  LIG1      -0.3200000000000003
     12 C          -0.1422   -1.7509    1.1241 C.3     1  LIG1      -0.2599999999999998
     13 C          -1.5970   -1.9339    1.5883 C.3     1  LIG1      -0.2699999999999996
     14 C          -2.5086   -2.6916    0.6084 C.3     1  LIG1      -0.2699999999999996
     15 C          -2.0071   -4.0878    0.1998 C.3     1  LIG1      -0.2699999999999996
     16 C          -1.7490   -5.0516    1.3740 C.3     1  LIG1      -0.2599999999999998
     17 C          -2.9376   -5.1732    2.3425 C.3     1  LIG1       -0.33999999999999986
     18 C          -4.2570   -5.4933    1.5514 C.2     1  LIG1       0.5199999999999996
     19 O          -4.2432   -6.5916    0.9383 O.co2   1  LIG1      -0.6799999999999997
     20 O          -5.1435   -4.5987    1.5776 O.co2   1  LIG1      -0.6799999999999997
     21 H           2.8559    7.7171   -1.1779 H       1  LIG1       0.15000000000000002
     22 H           3.6811    8.4340   -2.5676 H       1  LIG1          0.14
     23 H           4.6024    7.9948   -1.1183 H       1  LIG1          0.14
     24 H           3.1716    5.9941   -2.9739 H       1  LIG1          0.14
     25 H           4.8917    6.3299   -3.0289 H       1  LIG1          0.13
     26 H           4.4996    4.2575   -1.7946 H       1  LIG1          0.14
     27 H           5.2114    5.4691   -0.7431 H       1  LIG1          0.13
     28 H           3.4628    4.2165    0.4343 H       1  LIG1          0.14
     29 H           3.0514    5.9142    0.3428 H       1  LIG1          0.13
     30 H           1.0698    4.5267   -0.0534 H       1  LIG1          0.14
     31 H           1.4223    5.5038   -1.4617 H       1  LIG1          0.13
     32 H           0.7488    3.2314   -2.1132 H       1  LIG1          0.13
     33 H           2.3787    3.5776   -2.6606 H       1  LIG1          0.14
     34 H           2.2065    1.2865   -1.8017 H       1  LIG1          0.13
     35 H           3.3452    2.2157   -0.8352 H       1  LIG1          0.14
     36 H           1.9535    0.7916    0.5960 H       1  LIG1       0.15000000000000002
     37 H           1.6639    2.4786    0.9672 H       1  LIG1       0.15000000000000002
     38 H          -0.5668    2.4388   -0.0405 H       1  LIG1          0.13
     39 H          -1.6837    0.3797   -0.3607 H       1  LIG1          0.13
     40 H          -0.4462   -1.6156   -1.0148 H       1  LIG1       0.15000000000000002
     41 H           1.0875   -0.9527   -0.4727 H       1  LIG1       0.15000000000000002
     42 H           0.3395   -2.7333    1.0387 H       1  LIG1          0.14
     43 H           0.4149   -1.1922    1.8907 H       1  LIG1          0.13
     44 H          -1.5839   -2.4669    2.5472 H       1  LIG1          0.14
     45 H          -2.0329   -0.9458    1.7966 H       1  LIG1          0.13
     46 H          -3.5015   -2.8179    1.0561 H       1  LIG1          0.13
     47 H          -2.6525   -2.0840   -0.2998 H       1  LIG1          0.13
     48 H          -2.7715   -4.5450   -0.4389 H       1  LIG1          0.13
     49 H          -1.0934   -4.0041   -0.4113 H       1  LIG1          0.13
     50 H          -1.5590   -6.0473    0.9545 H       1  LIG1          0.12
     51 H          -0.8366   -4.7485    1.9154 H       1  LIG1          0.13
     52 H          -2.7271   -5.9885    3.0506 H       1  LIG1          0.12
     53 H          -3.0687   -4.2509    2.9234 H       1  LIG1       0.10999999999999999
@<TRIPOS>BOND
     1    25     2    1
     2    24     2    1
     3    33     6    1
     4    22     1    1
     5     2     1    1
     6     2     3    1
     7    32     6    1
     8    34     7    1
     9    26     3    1
    10     1    21    1
    11     1    23    1
    12     6     7    1
    13     6     5    1
    14    31     5    1
    15     3    27    1
    16     3     4    1
    17     7    35    1
    18     7     8    1
    19    40    11    1
    20     5     4    1
    21     5    30    1
    22    41    11    1
    23    48    15    1
    24    49    15    1
    25    39    10    1
    26    47    14    1
    27     4    29    1
    28     4    28    1
    29    11    10    1
    30    11    12    1
    31    10     9    2
    32    38     9    1
    33     9     8    1
    34     8    36    1
    35     8    37    1
    36    15    14    1
    37    15    16    1
    38    14    46    1
    39    14    13    1
    40    19    18   ar
    41    50    16    1
    42    42    12    1
    43    12    13    1
    44    12    43    1
    45    16    51    1
    46    16    17    1
    47    18    20   ar
    48    18    17    1
    49    13    45    1
    50    13    44    1
    51    17    53    1
    52    17    52    1
