@<TRIPOS>MOLECULE
ZQXNZNKHQXLVCV-HGJBZHBGSA-N	6045591	-1783.0422610619169
 100 100 0 0 0
SMALL
MULLIKEN NwChem

@<TRIPOS>ATOM
      1 C           2.4295   -4.3212    2.5383 C.3     1  LIG1            -0.54
      2 C           3.7630   -3.0196    4.2650 C.3     1  LIG1      -0.5300000000000002
      3 C           6.0957   -2.3228   -1.4699 C.3     1  LIG1        -0.54
      4 C           3.5621    2.1979    2.4283 C.3     1  LIG1      -0.5300000000000002
      5 C          -0.7313   -2.4781    2.8203 C.3     1  LIG1        -0.54
      6 C           1.7270   -2.3008   -2.3084 C.3     1  LIG1      -0.5499999999999998
      7 C           0.9607    2.0288   -1.8842 C.3     1  LIG1      -0.5599999999999996
      8 C          -3.2451    0.0475   -0.3789 C.3     1  LIG1      -0.5999999999999996
      9 C          -6.3548    5.6386   -0.9950 C.3     1  LIG1       -0.23000000000000043
     10 C           4.9957   -4.5644    0.8750 C.3     1  LIG1      -0.3099999999999996
     11 C           5.1019    0.1008    0.2980 C.3     1  LIG1      -0.3200000000000003
     12 C           1.0257    0.3747    2.6836 C.3     1  LIG1      -0.33000000000000007
     13 C          -0.3807   -3.0604   -0.2367 C.3     1  LIG1      -0.33000000000000007
     14 C           0.5391   -0.0844   -4.1349 C.3     1  LIG1      -0.3099999999999996
     15 C           4.8926   -3.9141    2.2360 C.2     1  LIG1      -0.1900000000000004
     16 C           4.3402   -3.7137   -0.2465 C.3     1  LIG1      -0.33999999999999986
     17 C           4.6008   -1.3159    0.3098 C.2     1  LIG1      -0.16999999999999993
     18 C           3.9413    1.1237    0.1460 C.3     1  LIG1      -0.33999999999999986
     19 C           1.9805    0.4550    1.5185 C.2     1  LIG1      -0.17999999999999972
     20 C          -0.4116   -0.0094    2.2452 C.3     1  LIG1      -0.3600000000000003
     21 C          -0.3941   -1.7128    0.4405 C.2     1  LIG1      -0.17999999999999972
     22 C          -0.6803   -2.9654   -1.7505 C.3     1  LIG1      -0.33999999999999986
     23 C          -0.2369   -1.0767   -3.3067 C.2     1  LIG1      -0.17999999999999972
     24 C          -0.0958    1.3298   -4.1283 C.3     1  LIG1      -0.34999999999999964
     25 C          -1.4985    2.1624   -2.2535 C.2     1  LIG1      -0.1900000000000004
     26 C          -1.7772    2.6056   -0.8302 C.3     1  LIG1      -0.45999999999999996
     27 C           3.7753   -3.7869    2.9661 C.2     1  LIG1      0.17999999999999972
     28 C           4.9936   -2.3566   -0.4402 C.2     1  LIG1      0.16999999999999993
     29 C           3.0688    1.2287    1.3830 C.2     1  LIG1      0.16000000000000014
     30 C          -0.5187   -1.4378    1.7479 C.2     1  LIG1      0.16000000000000014
     31 C           0.2526   -2.0407   -2.5124 C.2     1  LIG1      0.17999999999999972
     32 C          -0.2802    1.8813   -2.7356 C.2     1  LIG1      0.20000000000000018
     33 C          -3.9241    1.3882   -0.1977 C.ar    1  LIG1       0.08999999999999986
     34 C          -3.2460    2.6021   -0.4529 C.ar    1  LIG1       0.05999999999999961
     35 C          -5.2548    1.4037    0.2406 C.ar    1  LIG1       0.20999999999999996
     36 C          -3.9476    3.8113   -0.3485 C.ar    1  LIG1       0.20999999999999996
     37 C          -5.9386    2.6196    0.3719 C.ar    1  LIG1       0.2699999999999996
     38 C          -5.2843    3.8141    0.0653 C.ar    1  LIG1       0.2599999999999998
     39 O          -5.9687    0.2674    0.5355 O.3     1  LIG1      -0.6899999999999995
     40 O          -3.3897    5.0455   -0.6114 O.3     1  LIG1      -0.6899999999999995
     41 O          -7.2346    2.6351    0.7866 O.3     1  LIG1      -0.6899999999999995
     42 O          -6.0215    4.9747    0.2317 O.3     1  LIG1      -0.5600000000000005
     43 H           1.8941   -4.7701    3.3849 H       1  LIG1       0.15000000000000002
     44 H           2.4933   -5.0697    1.7451 H       1  LIG1       0.16000000000000003
     45 H           1.7988   -3.5008    2.1684 H       1  LIG1       0.18000000000000005
     46 H           4.7521   -2.6268    4.5233 H       1  LIG1       0.16000000000000003
     47 H           3.0677   -2.1695    4.2043 H       1  LIG1       0.17000000000000004
     48 H           3.4162   -3.6471    5.0979 H       1  LIG1       0.16000000000000003
     49 H           6.6097   -1.3601   -1.5282 H       1  LIG1       0.16000000000000003
     50 H           6.8522   -3.0882   -1.2504 H       1  LIG1       0.16000000000000003
     51 H           5.6994   -2.5568   -2.4684 H       1  LIG1       0.16000000000000003
     52 H           3.6276    3.2136    2.0131 H       1  LIG1       0.16000000000000003
     53 H           2.9277    2.2339    3.3170 H       1  LIG1       0.16000000000000003
     54 H           4.5776    1.9328    2.7551 H       1  LIG1       0.16000000000000003
     55 H          -0.6696   -3.5021    2.4455 H       1  LIG1       0.17000000000000004
     56 H           0.0107   -2.3727    3.6224 H       1  LIG1       0.17000000000000004
     57 H          -1.7155   -2.3447    3.2915 H       1  LIG1       0.16000000000000003
     58 H           2.3550   -1.8210   -3.0627 H       1  LIG1       0.16000000000000003
     59 H           2.0698   -1.9507   -1.3256 H       1  LIG1       0.18000000000000005
     60 H           1.9357   -3.3782   -2.3407 H       1  LIG1       0.16000000000000003
     61 H           0.9651    2.9682   -1.3197 H       1  LIG1       0.16000000000000003
     62 H           1.0349    1.2213   -1.1449 H       1  LIG1       0.18999999999999995
     63 H           1.8726    2.0009   -2.4891 H       1  LIG1       0.16000000000000003
     64 H          -2.9132   -0.3962    0.5690 H       1  LIG1       0.18999999999999995
     65 H          -3.9164   -0.6733   -0.8659 H       1  LIG1       0.17000000000000004
     66 H          -2.3632    0.1168   -1.0170 H       1  LIG1       0.18999999999999995
     67 H          -5.4528    6.0045   -1.4942 H       1  LIG1       0.17000000000000004
     68 H          -6.8977    4.9629   -1.6695 H       1  LIG1       0.16000000000000003
     69 H          -6.9950    6.4816   -0.7224 H       1  LIG1       0.18000000000000005
     70 H           6.0509   -4.7376    0.6291 H       1  LIG1          0.14
     71 H           4.5169   -5.5533    0.8800 H       1  LIG1       0.15000000000000002
     72 H           5.6376    0.3126    1.2369 H       1  LIG1       0.15000000000000002
     73 H           5.8226    0.2623   -0.5105 H       1  LIG1       0.15000000000000002
     74 H           1.3816   -0.3694    3.4140 H       1  LIG1       0.16000000000000003
     75 H           0.9833    1.3282    3.2218 H       1  LIG1       0.15000000000000002
     76 H           0.6024   -3.5356   -0.1002 H       1  LIG1       0.17000000000000004
     77 H          -1.1052   -3.7443    0.2233 H       1  LIG1       0.15000000000000002
     78 H           1.5738   -0.0141   -3.7834 H       1  LIG1       0.16000000000000003
     79 H           0.5948   -0.4242   -5.1810 H       1  LIG1       0.15000000000000002
     80 H           5.7995   -3.4447    2.6145 H       1  LIG1          0.12
     81 H           4.3759   -4.2825   -1.1858 H       1  LIG1          0.13
     82 H           3.2814   -3.5831    0.0002 H       1  LIG1       0.16000000000000003
     83 H           3.8056   -1.5017    1.0306 H       1  LIG1          0.12
     84 H           4.3707    2.1088   -0.0848 H       1  LIG1          0.14
     85 H           3.3413    0.8296   -0.7218 H       1  LIG1       0.15000000000000002
     86 H           1.7538   -0.2263    0.7009 H       1  LIG1          0.14
     87 H          -1.0884    0.1395    3.0970 H       1  LIG1          0.14
     88 H          -0.7335    0.6891    1.4648 H       1  LIG1       0.17000000000000004
     89 H          -0.2651   -0.8696   -0.2376 H       1  LIG1       0.15000000000000002
     90 H          -0.6023   -3.9789   -2.1714 H       1  LIG1          0.14
     91 H          -1.7182   -2.6406   -1.8953 H       1  LIG1       0.15000000000000002
     92 H          -1.3223   -0.9851   -3.3827 H       1  LIG1          0.12
     93 H           0.5513    1.9960   -4.7187 H       1  LIG1          0.14
     94 H          -1.0651    1.2933   -4.6421 H       1  LIG1          0.14
     95 H          -2.3709    2.0186   -2.8899 H       1  LIG1          0.13
     96 H          -1.2265    1.9558   -0.1376 H       1  LIG1       0.19999999999999996
     97 H          -1.3408    3.5989   -0.6419 H       1  LIG1       0.16000000000000003
     98 H          -5.3588   -0.4828    0.5689 H       1  LIG1       0.44999999999999996
     99 H          -2.6046    4.9166   -1.1636 H       1  LIG1       0.44999999999999996
    100 H          -7.4680    3.5797    0.8558 H       1  LIG1       0.43999999999999995
@<TRIPOS>BOND
     1    79    14    1
     2    93    24    1
     3    94    24    1
     4    14    24    1
     5    14    78    1
     6    14    23    1
     7    24    32    1
     8    92    23    1
     9    23    31    2
    10    58     6    1
    11    95    25    1
    12    32    25    2
    13    32     7    1
    14    31     6    1
    15    31    22    1
    16    63     7    1
    17    51     3    1
    18    60     6    1
    19     6    59    1
    20    25    26    1
    21    90    22    1
    22    91    22    1
    23     7    61    1
    24     7    62    1
    25    22    13    1
    26    68     9    1
    27    49     3    1
    28    67     9    1
    29     3    50    1
    30     3    28    1
    31    81    16    1
    32    99    40    1
    33    66     8    1
    34     9    69    1
    35     9    42    1
    36    65     8    1
    37    26    97    1
    38    26    34    1
    39    26    96    1
    40    85    18    1
    41    40    36    1
    42    73    11    1
    43    34    36   ar
    44    34    33   ar
    45    28    16    1
    46    28    17    2
    47     8    33    1
    48     8    64    1
    49    36    38   ar
    50    16    82    1
    51    16    10    1
    52    89    21    1
    53    13    76    1
    54    13    77    1
    55    13    21    1
    56    33    35   ar
    57    84    18    1
    58    38    42    1
    59    38    37   ar
    60    18    11    1
    61    18    29    1
    62    35    37   ar
    63    35    39    1
    64    11    17    1
    65    11    72    1
    66    17    83    1
    67    37    41    1
    68    21    30    2
    69    39    98    1
    70    70    10    1
    71    86    19    1
    72    41   100    1
    73    10    71    1
    74    10    15    1
    75    29    19    2
    76    29     4    1
    77    88    20    1
    78    19    12    1
    79    44     1    1
    80    30    20    1
    81    30     5    1
    82    52     4    1
    83    45     1    1
    84    15    80    1
    85    15    27    2
    86    20    12    1
    87    20    87    1
    88     4    54    1
    89     4    53    1
    90    55     5    1
    91     1    27    1
    92     1    43    1
    93    12    75    1
    94    12    74    1
    95     5    57    1
    96     5    56    1
    97    27     2    1
    98    47     2    1
    99     2    46    1
   100     2    48    1
