@<TRIPOS>MOLECULE
ZRJHLGYVUCPZNH-MQWKRIRWSA-O	6045592	-690.3805216358236
 35 34 0 0 0
SMALL
MULLIKEN NwChem

@<TRIPOS>ATOM
      1 C1         -0.4441   -2.0070    1.6907 C.3     1  <1>       -0.33000000000000007
      2 C2         -0.8735   -4.1847    0.6596 C.3     1  <1>       -0.33999999999999986
      3 C3         -2.6479   -2.5029    0.7158 C.3     1  <1>       -0.33999999999999986
      4 C4         -1.2459   -0.9475   -1.3974 C.3     1  <1>       -0.3200000000000003
      5 C5         -0.8027    0.4047   -0.8151 C.3     1  <1>       -0.29000000000000004
      6 C6         -0.6575   -2.2406   -0.8204 C.3     1  <1>       -0.15000000000000036
      7 C7          0.7162    0.6337   -0.9030 C.3     1  <1>        0.1200000000000001
      8 C8          1.1096    2.1217   -0.8064 C.3     1  <1>        -0.07000000000000028
      9 C9          0.7880    2.6904    0.5853 C.2     1  <1>        0.6100000000000003
     10 N1          2.5295    2.2572   -1.1342 N.3     1  <1>       -0.7599999999999998
     11 N2         -1.1653   -2.7088    0.5631 N.4     1  <1>        -0.3600000000000003
     12 O1          1.4173   -0.1419    0.0766 O.3     1  <1>       -0.6899999999999995
     13 O2          0.5945    2.0248    1.5936 O.2     1  <1>       -0.5199999999999996
     14 O3          0.8050    4.0286    0.5850 O.3     1  <1>       -0.5700000000000003
     15 H1         -0.8457   -2.3787    2.6391 H       1  <1>        0.21999999999999997
     16 H2         -0.5831   -0.9350    1.6096 H       1  <1>        0.20999999999999996
     17 H3          0.6226   -2.2358    1.6119 H       1  <1>        0.21999999999999997
     18 H4         -1.0936   -4.5294    1.6682 H       1  <1>        0.21999999999999997
     19 H5         -1.4990   -4.7166   -0.0584 H       1  <1>        0.21999999999999997
     20 H6          0.1814   -4.3499    0.4329 H       1  <1>        0.21999999999999997
     21 H7         -2.8667   -1.4340    0.7535 H       1  <1>        0.21999999999999997
     22 H8         -3.1643   -2.9718   -0.1278 H       1  <1>        0.22999999999999998
     23 H9         -2.9643   -2.9710    1.6458 H       1  <1>        0.21999999999999997
     24 H10        -0.9443   -0.9702   -2.4522 H       1  <1>        0.18000000000000005
     25 H11        -2.3406   -1.0060   -1.4233 H       1  <1>        0.18000000000000005
     26 H12        -1.3177    1.1816   -1.3952 H       1  <1>        0.16000000000000003
     27 H13        -1.1274    0.5424    0.2231 H       1  <1>        0.17000000000000004
     28 H14         0.4264   -2.1738   -0.7194 H       1  <1>        0.21999999999999997
     29 H15        -0.9092   -3.0622   -1.4976 H       1  <1>        0.20999999999999996
     30 H16         1.0832    0.2888   -1.8771 H       1  <1>        0.16000000000000003
     31 H17         0.5304    2.6889   -1.5448 H       1  <1>        0.18999999999999995
     32 H18         2.8327    3.2328   -1.0938 H       1  <1>        0.33999999999999997
     33 H19         3.0992    1.7047   -0.4923 H       1  <1>        0.32999999999999996
     34 H20         1.2746    0.3392    0.9160 H       1  <1>        0.43000000000000005
     35 H21         0.6530    4.3514    1.4937 H       1  <1>        0.44999999999999996
@<TRIPOS>BOND
     1    24     4    1
     2    30     7    1
     3    31     8    1
     4    29     6    1
     5    25     4    1
     6     4     6    1
     7     4     5    1
     8    26     5    1
     9    10    32    1
    10    10     8    1
    11    10    33    1
    12     7     5    1
    13     7     8    1
    14     7    12    1
    15     6    28    1
    16     6    11    1
    17     5    27    1
    18     8     9    1
    19    22     3    1
    20    19     2    1
    21    12    34    1
    22    20     2    1
    23    11     2    1
    24    11     3    1
    25    11     1    1
    26    14     9    1
    27    14    35    1
    28     9    13    2
    29     2    18    1
    30     3    21    1
    31     3    23    1
    32    16     1    1
    33    17     1    1
    34     1    15    1
