@<TRIPOS>MOLECULE
ZSLZBFCDCINBPY-ZSJPKINUSA-J	11075285	-3981.5621312658623
 85 87 0 0 0
SMALL
MULLIKEN NwChem

@<TRIPOS>ATOM
      1 C          13.1845    0.1262   -0.8674 C.3     1  LIG1              -0.5
      2 C           2.4812    0.5701   -1.8480 C.3     1  LIG1      -0.46999999999999975
      3 C           3.3980   -1.5626   -0.8493 C.3     1  LIG1      -0.46999999999999975
      4 C           8.8516    0.6848    0.2370 C.3     1  LIG1       -0.3899999999999997
      5 C           7.7641   -0.0766   -0.5511 C.3     1  LIG1       -0.1200000000000001
      6 C          11.0858    1.5823    1.8877 C.3     1  LIG1       -0.1299999999999999
      7 C          12.2877    2.4731    2.2649 C.3     1  LIG1       -0.3700000000000001
      8 C          -4.5890   -1.0305    0.9673 C.3     1  LIG1       -0.08999999999999986
      9 C           1.8106   -0.1251    0.4696 C.3     1  LIG1       -0.040000000000000036
     10 C          -5.2001    3.6298    1.2574 C.ar    1  LIG1       0.15000000000000036
     11 C          -9.2140    2.1525    0.5053 C.ar    1  LIG1       0.21999999999999975
     12 C          12.6272    0.1998    0.5393 C.2     1  LIG1       0.5899999999999999
     13 C          -6.0351   -1.4107    0.6320 C.3     1  LIG1       0.13999999999999968
     14 C          10.2770    0.2550   -0.1070 C.2     1  LIG1       0.5999999999999996
     15 C          -7.8539    3.6905    1.0140 C.ar    1  LIG1       0.1900000000000004
     16 C          -6.9371   -0.0545   -1.1215 C.3     1  LIG1       0.1299999999999999
     17 C          -6.3657   -1.4643   -0.8634 C.3     1  LIG1       -0.009999999999999787
     18 C           4.1439    0.6761    0.0840 C.3     1  LIG1       0.08000000000000007
     19 C          -7.1454    4.8610    1.3271 C.ar    1  LIG1       0.4400000000000004
     20 C          -7.0789    2.5299    0.8426 C.ar    1  LIG1          0.54
     21 C           5.4854    0.5672   -0.7261 C.2     1  LIG1       0.5099999999999998
     22 C          -7.7170    0.1413    0.1868 C.3     1  LIG1       0.28000000000000025
     23 C           2.9570   -0.1193   -0.5578 C.3     1  LIG1       0.07000000000000028
     24 N          -7.7963    6.0659    1.5431 N.pl3   1  LIG1      -0.7699999999999996
     25 N          11.3098    0.7027    0.7190 N.am    1  LIG1      -0.4800000000000004
     26 N           6.4617    0.1120    0.0486 N.am    1  LIG1      -0.6200000000000001
     27 N          -5.8127    4.8221    1.4442 N.ar    1  LIG1        -0.54
     28 N          -5.7467    2.4538    0.9569 N.ar    1  LIG1      -0.5300000000000002
     29 N          -9.1984    3.4391    0.7932 N.ar    1  LIG1      -0.5800000000000001
     30 N          -7.9856    1.5420    0.5214 N.ar    1  LIG1      -0.5099999999999998
     31 O          13.2776   -0.1777    1.5028 O.2     1  LIG1      -0.5199999999999996
     32 O          10.5062   -0.5136   -1.0412 O.2     1  LIG1      -0.5600000000000005
     33 O          -7.7528    0.1200   -2.2393 O.3     1  LIG1      -0.7300000000000004
     34 O           4.3636    0.2432    1.4204 O.3     1  LIG1      -0.7200000000000006
     35 O           5.5019    0.9023   -1.9410 O.2     1  LIG1      -0.6899999999999995
     36 O          -8.5098   -4.1274   -2.6469 O.3     1  LIG1      -0.6699999999999999
     37 O          -7.1488   -2.0657   -3.5860 O.2     1  LIG1      -0.7300000000000004
     38 O          -5.9630   -4.0957   -2.4821 O.3     1  LIG1      -0.7400000000000002
     39 O          -3.5450   -2.7150   -1.5133 O.2     1  LIG1      -0.6400000000000006
     40 O          -2.0055   -3.8362    0.3312 O.3     1  LIG1      -0.6899999999999995
     41 O          -0.4106   -2.2661    1.6957 O.3     1  LIG1      -0.7100000000000009
     42 O          -0.9998    0.2593    1.6545 O.2     1  LIG1      -0.6199999999999992
     43 O          -3.7903   -2.2151    1.0329 O.3     1  LIG1      -0.5700000000000003
     44 O           0.6254   -0.7500   -0.1123 O.3     1  LIG1      -0.5399999999999991
     45 O          -6.9486   -0.4264    1.2152 O.3     1  LIG1      -0.5399999999999991
     46 O          -7.3615   -2.4591   -1.0758 O.3     1  LIG1      -0.6099999999999994
     47 O          -1.7728   -1.3465   -0.2764 O.3     1  LIG1      -0.6500000000000004
     48 P          -7.3327   -3.2069   -2.5884 P.3     1  LIG1       1.0899999999999999
     49 P          -2.8111   -2.6764   -0.2068 P.3     1  LIG1       1.1999999999999993
     50 P          -0.6660   -0.9358    0.8387 P.3     1  LIG1       1.1799999999999997
     51 S          13.0099    3.4488    0.8830 S.3     1  LIG1      -0.8299999999999983
     52 H          12.9890   -0.8640   -1.2909 H       1  LIG1       0.18999999999999995
     53 H          14.2620    0.2944   -0.7888 H       1  LIG1       0.17000000000000004
     54 H          12.7299    0.8784   -1.5108 H       1  LIG1       0.17000000000000004
     55 H           3.3217    0.6594   -2.5390 H       1  LIG1       0.16000000000000003
     56 H           2.1114    1.5820   -1.6284 H       1  LIG1          0.13
     57 H           1.6584    0.0066   -2.3016 H       1  LIG1          0.14
     58 H           2.5378   -2.1840   -1.1224 H       1  LIG1       0.15000000000000002
     59 H           3.8773   -1.9869    0.0399 H       1  LIG1          0.14
     60 H           4.1244   -1.5723   -1.6687 H       1  LIG1          0.14
     61 H           8.7431    1.7652    0.0684 H       1  LIG1       0.18999999999999995
     62 H           8.6734    0.5371    1.3101 H       1  LIG1       0.18000000000000005
     63 H           7.7820    0.2419   -1.6028 H       1  LIG1       0.10999999999999999
     64 H           8.0403   -1.1447   -0.5440 H       1  LIG1          0.12
     65 H          10.7779    0.9734    2.7538 H       1  LIG1       0.16000000000000003
     66 H          10.2558    2.2375    1.6218 H       1  LIG1       0.18000000000000005
     67 H          11.9010    3.1340    3.0599 H       1  LIG1          0.14
     68 H          13.0534    1.8426    2.7325 H       1  LIG1       0.15000000000000002
     69 H          -4.5623   -0.5663    1.9580 H       1  LIG1       0.18000000000000005
     70 H          -4.1792   -0.3052    0.2566 H       1  LIG1       0.18000000000000005
     71 H           2.1093   -0.6771    1.3646 H       1  LIG1       0.17000000000000004
     72 H           1.5468    0.8985    0.7602 H       1  LIG1       0.16000000000000003
     73 H          -4.1173    3.6376    1.3595 H       1  LIG1       0.17000000000000004
     74 H         -10.0993    1.5805    0.2596 H       1  LIG1       0.20999999999999996
     75 H          -6.2529   -2.3807    1.0880 H       1  LIG1       0.17000000000000004
     76 H          -6.0954    0.6593   -1.1140 H       1  LIG1       0.15000000000000002
     77 H          -5.4659   -1.6470   -1.4525 H       1  LIG1       0.18999999999999995
     78 H           3.8524    1.7441    0.0867 H       1  LIG1       0.10999999999999999
     79 H          -8.6981   -0.3432    0.0786 H       1  LIG1       0.17000000000000004
     80 H          -7.1981    6.8694    1.3949 H       1  LIG1          0.36
     81 H          -8.6995    6.1253    1.0890 H       1  LIG1          0.37
     82 H          -7.5925   -0.6757   -2.8433 H       1  LIG1       0.44999999999999996
     83 H           5.3357    0.0090    1.3611 H       1  LIG1          0.38
     84 H          -5.1575   -3.5778   -2.2580 H       1  LIG1       0.45999999999999996
     85 H          -0.8951   -3.0447    1.2653 H       1  LIG1           0.47
@<TRIPOS>BOND
     1    37    48    2
     2    82    33    1
     3    36    48    1
     4    48    38    1
     5    48    46    1
     6    55     2    1
     7    38    84    1
     8    57     2    1
     9    33    16    1
    10    35    21    2
    11     2    56    1
    12     2    23    1
    13    60     3    1
    14    63     5    1
    15    39    49    2
    16    54     1    1
    17    77    17    1
    18    52     1    1
    19    58     3    1
    20    16    76    1
    21    16    17    1
    22    16    22    1
    23    46    17    1
    24    32    14    2
    25     1    53    1
    26     1    12    1
    27    17    13    1
    28     3    23    1
    29     3    59    1
    30    21    26   am
    31    21    18    1
    32    23    18    1
    33    23     9    1
    34     5    64    1
    35     5    26    1
    36     5     4    1
    37    47    49    1
    38    47    50    1
    39    49    40    1
    40    49    43    1
    41    44     9    1
    42    44    50    1
    43    14     4    1
    44    14    25   am
    45    61     4    1
    46    79    22    1
    47    18    78    1
    48    18    34    1
    49    22    30    1
    50    22    45    1
    51     4    62    1
    52    70     8    1
    53    74    11    1
    54     9    72    1
    55     9    71    1
    56    11    30   ar
    57    11    29   ar
    58    30    20   ar
    59    12    25   am
    60    12    31    2
    61    13     8    1
    62    13    75    1
    63    13    45    1
    64    25     6    1
    65    29    15   ar
    66    50    42    2
    67    50    41    1
    68    20    28   ar
    69    20    15   ar
    70    51     7    1
    71    28    10   ar
    72     8    43    1
    73     8    69    1
    74    15    19   ar
    75    81    24    1
    76    10    73    1
    77    10    27   ar
    78    85    41    1
    79    19    27   ar
    80    19    24    1
    81    83    34    1
    82    80    24    1
    83    66     6    1
    84     6     7    1
    85     6    65    1
    86     7    68    1
    87     7    67    1
