@<TRIPOS>MOLECULE
ZTGCMYPRIIAXFD-LHSBZCSKSA-M	6045596	-2132.618861513638
 120 120 0 0 0
SMALL
MULLIKEN NwChem

@<TRIPOS>ATOM
      1 C           5.9551    0.2891    0.2433 C.3     1  LIG1            -0.54
      2 C           6.6900   -1.8420    1.4349 C.3     1  LIG1        -0.54
      3 C           3.0079    3.0587    3.9394 C.3     1  LIG1      -0.5499999999999998
      4 C           2.3732   -2.8378    4.8636 C.3     1  LIG1      -0.5300000000000002
      5 C           3.6063   -2.0866   -1.3878 C.3     1  LIG1        -0.54
      6 C           1.2587    2.6446    0.5978 C.3     1  LIG1      -0.5499999999999998
      7 C          -0.9889   -0.4900    2.4308 C.3     1  LIG1        -0.54
      8 C          -0.5701   -4.4336   -1.4503 C.3     1  LIG1      -0.5300000000000002
      9 C           0.2437    0.8591   -4.9761 C.3     1  LIG1      -0.5499999999999998
     10 C           6.5697    1.8135    2.8763 C.3     1  LIG1      -0.2999999999999998
     11 C           3.0439    0.3627    5.3883 C.3     1  LIG1      -0.3200000000000003
     12 C           2.7773   -2.8618    1.7535 C.3     1  LIG1      -0.33000000000000007
     13 C           2.0491    0.5864   -1.4840 C.3     1  LIG1      -0.33999999999999986
     14 C          -1.7978    2.2751    1.1396 C.3     1  LIG1      -0.3200000000000003
     15 C          -2.4938   -2.6702    0.6955 C.3     1  LIG1      -0.3099999999999996
     16 C          -0.0776   -2.0855   -3.4460 C.3     1  LIG1      -0.33000000000000007
     17 C           6.7199    0.3249    2.6405 C.2     1  LIG1      -0.20000000000000018
     18 C           5.1571    2.4321    2.7757 C.3     1  LIG1      -0.33000000000000007
     19 C           4.1143    0.8585    4.4486 C.2     1  LIG1      -0.1900000000000004
     20 C           1.8829   -0.3444    4.6383 C.3     1  LIG1      -0.33000000000000007
     21 C           2.4721   -1.6707    2.6224 C.2     1  LIG1      -0.1900000000000004
     22 C           1.9652   -2.8463    0.4299 C.3     1  LIG1      -0.34999999999999964
     23 C           1.7228   -0.6082   -0.6198 C.2     1  LIG1      -0.16999999999999993
     24 C           0.8418    1.5344   -1.6643 C.3     1  LIG1      -0.34999999999999964
     25 C          -1.0492    1.8917   -0.1038 C.2     1  LIG1      -0.1900000000000004
     26 C          -2.7655    1.1476    1.5869 C.3     1  LIG1      -0.3700000000000001
     27 C          -2.7798   -1.1925    0.7911 C.2     1  LIG1      -0.20999999999999996
     28 C          -2.6954   -3.2383   -0.7383 C.3     1  LIG1      -0.34999999999999964
     29 C          -1.2133   -2.2082   -2.4612 C.2     1  LIG1      -0.17999999999999972
     30 C          -0.5455   -1.5621   -4.8341 C.3     1  LIG1      -0.33999999999999986
     31 C          -2.1864    0.2726   -4.5719 C.2     1  LIG1      -0.17999999999999972
     32 C          -2.7569    1.6424   -4.3136 C.3     1  LIG1      -0.41999999999999993
     33 C          -4.4299    0.6185   -2.6921 C.2     1  LIG1      -0.3099999999999996
     34 C          -5.2812    1.8661   -0.7762 C.3     1  LIG1       -0.33999999999999986
     35 C           6.4782   -0.3499    1.5084 C.2     1  LIG1      0.16999999999999993
     36 C           4.1037    2.0269    3.7917 C.2     1  LIG1      0.16000000000000014
     37 C           2.2657   -1.6405    3.9481 C.2     1  LIG1      0.16999999999999993
     38 C           2.3968   -1.7651   -0.5405 C.2     1  LIG1      0.16999999999999993
     39 C           0.2606    2.0274   -0.3572 C.2     1  LIG1      0.17999999999999972
     40 C          -2.1933   -0.2568    1.5548 C.2     1  LIG1      0.1900000000000004
     41 C          -1.4575   -3.2210   -1.6168 C.2     1  LIG1      0.16000000000000014
     42 C          -0.9151   -0.0908   -4.7943 C.2     1  LIG1      0.16999999999999993
     43 C          -3.6069    1.7082   -3.0373 C.2     1  LIG1       0.1200000000000001
     44 C          -5.2637    0.7096   -1.5691 C.2     1  LIG1       0.09999999999999964
     45 C          -4.4232    2.9861   -1.0190 C.2     1  LIG1       0.41000000000000014
     46 C          -3.6160    2.8534   -2.2331 C.2     1  LIG1       0.15000000000000036
     47 C          -6.1256   -0.4179   -1.1880 C.2     1  LIG1       0.5199999999999996
     48 O          -4.3368    3.9968   -0.2651 O.2     1  LIG1      -0.7699999999999996
     49 O          -2.8394    3.9627   -2.4962 O.2     1  LIG1      -0.6899999999999995
     50 O          -6.9961   -0.4309   -0.3312 O.2     1  LIG1      -0.5500000000000007
     51 O          -5.8688   -1.5780   -1.8996 O.3     1  LIG1      -0.6099999999999994
     52 H           6.4121   -0.1638   -0.6473 H       1  LIG1       0.16000000000000003
     53 H           6.1484    1.3664    0.2090 H       1  LIG1       0.16000000000000003
     54 H           4.8696    0.1341    0.1537 H       1  LIG1       0.18000000000000005
     55 H           6.9962   -2.2628    2.3989 H       1  LIG1       0.16000000000000003
     56 H           5.7701   -2.3534    1.1242 H       1  LIG1       0.18000000000000005
     57 H           7.4557   -2.0982    0.6864 H       1  LIG1       0.16000000000000003
     58 H           2.1621    2.7154    4.5401 H       1  LIG1       0.16000000000000003
     59 H           3.3958    3.9806    4.3952 H       1  LIG1       0.16000000000000003
     60 H           2.6171    3.3405    2.9540 H       1  LIG1       0.18000000000000005
     61 H           2.6776   -3.7525    4.3482 H       1  LIG1       0.16000000000000003
     62 H           3.1057   -2.6532    5.6627 H       1  LIG1       0.16000000000000003
     63 H           1.4131   -3.0298    5.3634 H       1  LIG1       0.16000000000000003
     64 H           3.3828   -2.9200   -2.0709 H       1  LIG1       0.16000000000000003
     65 H           3.9314   -1.2360   -1.9922 H       1  LIG1       0.16000000000000003
     66 H           4.4620   -2.4051   -0.7777 H       1  LIG1       0.17000000000000004
     67 H           1.9531    3.3092    0.0627 H       1  LIG1       0.16000000000000003
     68 H           0.7790    3.2286    1.3870 H       1  LIG1       0.16000000000000003
     69 H           1.8777    1.8742    1.0855 H       1  LIG1       0.17000000000000004
     70 H          -1.2339   -0.3148    3.4906 H       1  LIG1       0.15000000000000002
     71 H          -0.5664   -1.4961    2.3490 H       1  LIG1       0.16000000000000003
     72 H          -0.1919    0.2190    2.1726 H       1  LIG1       0.17000000000000004
     73 H          -1.0763   -5.3411   -1.8113 H       1  LIG1       0.16000000000000003
     74 H           0.3884   -4.3475   -1.9682 H       1  LIG1       0.16000000000000003
     75 H          -0.3534   -4.6031   -0.3876 H       1  LIG1       0.16000000000000003
     76 H           0.5381    0.8974   -6.0366 H       1  LIG1       0.16000000000000003
     77 H           0.0240    1.8792   -4.6532 H       1  LIG1       0.17000000000000004
     78 H           1.1272    0.5176   -4.4233 H       1  LIG1       0.17000000000000004
     79 H           6.9706    2.0487    3.8706 H       1  LIG1          0.14
     80 H           7.2047    2.3534    2.1583 H       1  LIG1       0.15000000000000002
     81 H           3.4873   -0.3267    6.1192 H       1  LIG1          0.14
     82 H           2.6220    1.1895    5.9710 H       1  LIG1       0.15000000000000002
     83 H           3.8487   -2.8921    1.5074 H       1  LIG1       0.16000000000000003
     84 H           2.5624   -3.7970    2.2830 H       1  LIG1       0.15000000000000002
     85 H           2.8798    1.1509   -1.0338 H       1  LIG1       0.16000000000000003
     86 H           2.4106    0.2707   -2.4715 H       1  LIG1       0.16000000000000003
     87 H          -1.1079    2.5281    1.9542 H       1  LIG1          0.14
     88 H          -2.4192    3.1586    0.9303 H       1  LIG1          0.14
     89 H          -1.4927   -2.9230    1.0655 H       1  LIG1       0.16000000000000003
     90 H          -3.1993   -3.1914    1.3630 H       1  LIG1       0.15000000000000002
     91 H           0.6904   -1.4060   -3.0511 H       1  LIG1       0.17000000000000004
     92 H           0.4192   -3.0526   -3.5885 H       1  LIG1       0.15000000000000002
     93 H           7.0852   -0.2500    3.4924 H       1  LIG1          0.13
     94 H           5.2817    3.5240    2.8380 H       1  LIG1          0.14
     95 H           4.7441    2.2543    1.7730 H       1  LIG1       0.16000000000000003
     96 H           4.9128    0.1533    4.2377 H       1  LIG1          0.13
     97 H           1.0754   -0.5484    5.3576 H       1  LIG1          0.14
     98 H           1.4750    0.3585    3.9042 H       1  LIG1       0.15000000000000002
     99 H           2.3784   -0.7318    2.0788 H       1  LIG1          0.13
    100 H           2.0695   -3.8303   -0.0479 H       1  LIG1          0.14
    101 H           0.9039   -2.7242    0.6726 H       1  LIG1       0.16000000000000003
    102 H           0.8336   -0.4938   -0.0008 H       1  LIG1          0.13
    103 H           1.1755    2.3883   -2.2766 H       1  LIG1          0.14
    104 H           0.0608    1.0192   -2.2344 H       1  LIG1       0.15000000000000002
    105 H          -1.6699    1.4391   -0.8770 H       1  LIG1          0.12
    106 H          -3.1071    1.3778    2.6077 H       1  LIG1          0.13
    107 H          -3.6508    1.1892    0.9486 H       1  LIG1       0.17000000000000004
    108 H          -3.6387   -0.8739    0.2000 H       1  LIG1          0.12
    109 H          -3.0298   -4.2834   -0.6531 H       1  LIG1          0.14
    110 H          -3.5135   -2.6891   -1.2196 H       1  LIG1          0.14
    111 H          -1.9186   -1.3787   -2.4615 H       1  LIG1          0.12
    112 H           0.2629   -1.7302   -5.5606 H       1  LIG1          0.14
    113 H          -1.3993   -2.1669   -5.1638 H       1  LIG1       0.15000000000000002
    114 H          -2.9129   -0.5354   -4.5240 H       1  LIG1          0.14
    115 H          -1.9292    2.3636   -4.2711 H       1  LIG1       0.16000000000000003
    116 H          -3.3706    1.9522   -5.1766 H       1  LIG1       0.17000000000000004
    117 H          -4.4550   -0.2797   -3.2922 H       1  LIG1          0.14
    118 H          -5.9309    1.9130    0.0919 H       1  LIG1       0.09999999999999998
    119 H          -2.3937    3.8286   -3.3447 H       1  LIG1       0.43999999999999995
    120 H          -6.5091   -2.2178   -1.5411 H       1  LIG1       0.43999999999999995
@<TRIPOS>BOND
     1    76     9    1
     2   112    30    1
     3   116    32    1
     4   113    30    1
     5     9    42    1
     6     9    77    1
     7     9    78    1
     8    30    42    1
     9    30    16    1
    10    42    31    2
    11    31   114    1
    12    31    32    1
    13    32   115    1
    14    32    43    1
    15    92    16    1
    16    16    91    1
    17    16    29    1
    18   119    49    1
    19   117    33    1
    20    43    33    1
    21    43    46    2
    22    33    44    2
    23    49    46    1
    24    86    13    1
    25   111    29    1
    26    29    41    2
    27   103    24    1
    28   104    24    1
    29    46    45    1
    30    64     5    1
    31    65     5    1
    32    74     8    1
    33    51   120    1
    34    51    47    1
    35    73     8    1
    36    24    13    1
    37    24    39    1
    38    41     8    1
    39    41    28    1
    40    44    47    1
    41    44    34    1
    42    13    85    1
    43    13    23    1
    44     8    75    1
    45     5    66    1
    46     5    38    1
    47   110    28    1
    48    47    50    2
    49    45    34    1
    50    45    48    2
    51   105    25    1
    52    34   118    1
    53    28   109    1
    54    28    15    1
    55    52     1    1
    56    23    38    2
    57    23   102    1
    58    38    22    1
    59    39    25    2
    60    39     6    1
    61    25    14    1
    62   100    22    1
    63    67     6    1
    64    54     1    1
    65   108    27    1
    66    53     1    1
    67     1    35    1
    68    22   101    1
    69    22    12    1
    70     6    69    1
    71     6    68    1
    72    57     2    1
    73    15    27    1
    74    15    89    1
    75    15    90    1
    76    27    40    2
    77    88    14    1
    78   107    26    1
    79    56     2    1
    80    14    26    1
    81    14    87    1
    82     2    35    1
    83     2    55    1
    84    83    12    1
    85    35    17    2
    86    40    26    1
    87    40     7    1
    88    26   106    1
    89    12    84    1
    90    12    21    1
    91    95    18    1
    92    99    21    1
    93    80    10    1
    94    72     7    1
    95    71     7    1
    96     7    70    1
    97    21    37    2
    98    17    10    1
    99    17    93    1
   100    18    94    1
   101    18    10    1
   102    18    36    1
   103    10    79    1
   104    60     3    1
   105    36     3    1
   106    36    19    2
   107    98    20    1
   108     3    59    1
   109     3    58    1
   110    37    20    1
   111    37     4    1
   112    96    19    1
   113    61     4    1
   114    19    11    1
   115    20    97    1
   116    20    11    1
   117     4    63    1
   118     4    62    1
   119    11    82    1
   120    11    81    1
