@<TRIPOS>MOLECULE
ZTQSAGDEMFDKMZ-UHFFFAOYSA-N	6045597	-232.3792974715219
 13 12 0 0 0
SMALL
MULLIKEN NwChem

@<TRIPOS>ATOM
      1 C           0.4321   -1.9309   -0.2991 C.3     1  LIG1      -0.45999999999999996
      2 C          -0.0625   -0.9871    0.8038 C.3     1  LIG1      -0.2699999999999996
      3 C           0.4389    0.4704    0.6654 C.3     1  LIG1       -0.33000000000000007
      4 C          -0.0830    1.1377   -0.5879 C.2     1  LIG1       0.2599999999999998
      5 O          -0.9609    1.9733   -0.5988 O.2     1  LIG1      -0.4499999999999993
      6 H           0.0552   -1.6406   -1.2862 H       1  LIG1       0.16000000000000003
      7 H           0.0989   -2.9572   -0.1103 H       1  LIG1       0.16000000000000003
      8 H           1.5279   -1.9388   -0.3499 H       1  LIG1       0.15000000000000002
      9 H          -1.1597   -0.9813    0.8277 H       1  LIG1       0.15000000000000002
     10 H           0.2669   -1.3635    1.7802 H       1  LIG1       0.16000000000000003
     11 H           0.1102    1.0660    1.5232 H       1  LIG1       0.16000000000000003
     12 H           1.5383    0.4708    0.6343 H       1  LIG1       0.17000000000000004
     13 H           0.3810    0.7974   -1.5418 H       1  LIG1           0.14
@<TRIPOS>BOND
     1    13     4    1
     2     6     1    1
     3     5     4    2
     4     4     3    1
     5     8     1    1
     6     1     7    1
     7     1     2    1
     8    12     3    1
     9     3     2    1
    10     3    11    1
    11     2     9    1
    12     2    10    1
