@<TRIPOS>MOLECULE
ZUKPVRWZDMRIEO-VKHMYHEASA-N	6045598	-929.7861521866299
 21 20 0 0 0
SMALL
MULLIKEN NwChem

@<TRIPOS>ATOM
      1 CA          1.9901    0.2059    1.1451 C.3     2  GLY2       -0.2599999999999998
      2 CB         -1.4105   -0.2843   -0.7310 C.3     1  CYS1       -0.4500000000000002
      3 CA         -0.3341    0.8204   -0.6810 C.3     1  CYS1       -0.009999999999999787
      4 C           1.2707   -0.8359    1.9919 C.2     2  GLY2       0.5899999999999999
      5 C           1.0183    0.1724   -1.0158 C.2     1  CYS1       0.4900000000000002
      6 N          -0.6514    1.9303   -1.5730 N.3     1  CYS1        -0.79
      7 N           2.0019   -0.1024   -0.2634 N.2     2  GLY2      -0.4800000000000004
      8 O           0.3438   -1.5290    1.6354 O.2     2  GLY2      -0.4900000000000002
      9 OXT         1.7695   -0.8665    3.2487 O.3     2  GLY2      -0.5700000000000003
     10 O           1.1510   -0.1533   -2.3324 O.2     1  CYS1      -0.6199999999999992
     11 SG         -3.1457    0.3065   -0.5449 S.3     1  CYS1      -0.14999999999999858
     12 HA1         3.0232    0.2715    1.4993 H       2  GLY2       0.18999999999999995
     13 HA2         1.5180    1.1713    1.3998 H       2  GLY2       0.20999999999999996
     14 HB1        -1.3930   -0.7825   -1.7068 H       1  CYS1       0.20999999999999996
     15 HB2        -1.1800   -1.0304    0.0286 H       1  CYS1       0.21999999999999997
     16 HA         -0.2917    1.1916    0.3503 H       1  CYS1       0.17000000000000004
     17 H1          0.1490    2.4144   -1.9611 H       1  CYS1          0.35
     18 H2         -1.3623    1.7378   -2.2682 H       1  CYS1          0.35
     19 HXT         1.2348   -1.5153    3.7444 H       2  GLY2       0.44999999999999996
     20 H           0.4177    0.2697   -2.8125 H       1  CYS1       0.43999999999999995
     21 HG         -2.9659    0.9472    0.6300 H       1  CYS1           0.14
@<TRIPOS>BOND
     1    20    10    1
     2    10     5    1
     3    18     6    1
     4    17     6    1
     5    14     2    1
     6     6     3    1
     7     5     3    1
     8     5     7    2
     9     2     3    1
    10     2    11    1
    11     2    15    1
    12     3    16    1
    13    11    21    1
    14     7     1    1
    15     1    13    1
    16     1    12    1
    17     1     4    1
    18     8     4    2
    19     4     9    1
    20     9    19    1
