@<TRIPOS>MOLECULE
ZUNBITIXDCPNSD-LSRJEVITSA-O	11075284	-1499.6747259538477
 48 50 0 0 0
SMALL
MULLIKEN NwChem

@<TRIPOS>ATOM
      1 C           3.9802   -2.5013    1.3287 C.3     1  LIG1      -0.6299999999999999
      2 C           2.2652    1.1736    0.0229 C.3     1  LIG1      -0.3200000000000003
      3 C           2.5972    1.4324   -1.4473 C.3     1  LIG1      -0.1900000000000004
      4 C           3.0823    0.1332    0.7991 C.3     1  LIG1      -0.4500000000000002
      5 C           1.2773   -2.2238    0.3436 C.3     1  LIG1          -0.5
      6 C          -0.3239    0.2346   -2.6392 C.ar    1  LIG1       0.16000000000000014
      7 C          -1.9798    1.9659    1.0189 C.ar    1  LIG1       0.23000000000000043
      8 C           0.6318   -1.9180    1.6954 C.3     1  LIG1       0.11000000000000032
      9 C          -1.5132    2.0227   -1.0518 C.ar    1  LIG1       0.20000000000000018
     10 C          -0.6952   -2.6746    1.8946 C.3     1  LIG1       0.09999999999999964
     11 C          -1.7243   -1.6887    1.3001 C.3     1  LIG1       0.05999999999999961
     12 C          -1.2875    2.3291   -2.4164 C.ar    1  LIG1           0.5
     13 C          -1.0927    0.7636   -0.6174 C.ar    1  LIG1       0.5099999999999998
     14 C          -1.1122   -0.3238    1.6732 C.3     1  LIG1       0.2699999999999996
     15 N           3.7563    2.4198   -1.6290 N.4     1  LIG1         -0.71
     16 N          -1.6372    3.5057   -2.9604 N.pl3   1  LIG1      -0.7800000000000002
     17 N          -0.6540    1.4088   -3.1843 N.ar    1  LIG1        -0.54
     18 N          -0.4832   -0.1776   -1.3689 N.ar    1  LIG1        -0.54
     19 N          -2.0684    2.7540   -0.0194 N.ar    1  LIG1      -0.5700000000000003
     20 N          -1.3958    0.7333    0.7342 N.ar    1  LIG1      -0.5099999999999998
     21 O          -0.8780   -2.7896    3.2817 O.3     1  LIG1      -0.6799999999999997
     22 O          -2.9847   -1.7883    1.9249 O.3     1  LIG1      -0.6600000000000001
     23 O           0.3109   -0.5196    1.7520 O.3     1  LIG1      -0.5299999999999994
     24 S           2.9966   -1.5820    0.0929 S.3     1  LIG1      0.5700000000000003
     25 H           3.9286   -3.5589    1.0584 H       1  LIG1          0.25
     26 H           3.5856   -2.3371    2.3334 H       1  LIG1          0.25
     27 H           5.0148   -2.1579    1.2550 H       1  LIG1          0.26
     28 H           2.3098    2.1090    0.5969 H       1  LIG1       0.21999999999999997
     29 H           1.2218    0.8663    0.0621 H       1  LIG1       0.21999999999999997
     30 H           1.7454    1.8850   -1.9602 H       1  LIG1       0.22999999999999998
     31 H           2.8805    0.5321   -1.9972 H       1  LIG1          0.24
     32 H           4.1592    0.3382    0.8264 H       1  LIG1          0.25
     33 H           2.7077    0.0853    1.8242 H       1  LIG1          0.25
     34 H           0.6942   -1.7673   -0.4689 H       1  LIG1          0.27
     35 H           1.3993   -3.2981    0.1645 H       1  LIG1          0.25
     36 H           0.1465   -0.4790   -3.3133 H       1  LIG1       0.18000000000000005
     37 H          -2.3239    2.1985    2.0189 H       1  LIG1       0.21999999999999997
     38 H           1.2898   -2.1580    2.5365 H       1  LIG1       0.19999999999999996
     39 H          -0.7062   -3.6533    1.3902 H       1  LIG1       0.17000000000000004
     40 H          -1.7845   -1.7921    0.2110 H       1  LIG1       0.19999999999999996
     41 H          -1.4938   -0.0135    2.6496 H       1  LIG1       0.19999999999999996
     42 H           3.5404    3.3304   -1.2011 H       1  LIG1      0.44999999999999996
     43 H           3.9431    2.5937   -2.6265 H       1  LIG1      0.44999999999999996
     44 H           4.6341    2.0877   -1.2108 H       1  LIG1      0.44999999999999996
     45 H          -2.2302    4.1380   -2.4384 H       1  LIG1          0.39
     46 H          -1.5979    3.6071   -3.9666 H       1  LIG1          0.38
     47 H          -1.8399   -2.8041    3.4457 H       1  LIG1       0.43000000000000005
     48 H          -3.5815   -2.3342    1.3896 H       1  LIG1       0.44999999999999996
@<TRIPOS>BOND
     1    46    16    1
     2    36     6    1
     3    17     6   ar
     4    17    12   ar
     5    16    45    1
     6    16    12    1
     7     6    18   ar
     8    43    15    1
     9    12     9   ar
    10    31     3    1
    11    30     3    1
    12    15     3    1
    13    15    44    1
    14    15    42    1
    15     3     2    1
    16    18    13   ar
    17     9    13   ar
    18     9    19   ar
    19    13    20   ar
    20    34     5    1
    21    19     7   ar
    22     2    29    1
    23     2    28    1
    24     2     4    1
    25    24     5    1
    26    24     4    1
    27    24     1    1
    28    35     5    1
    29    40    11    1
    30     5     8    1
    31    20     7   ar
    32    20    14    1
    33     4    32    1
    34     4    33    1
    35     7    37    1
    36    25     1    1
    37    27     1    1
    38    11    14    1
    39    11    10    1
    40    11    22    1
    41     1    26    1
    42    48    22    1
    43    39    10    1
    44    14    23    1
    45    14    41    1
    46     8    23    1
    47     8    10    1
    48     8    38    1
    49    10    21    1
    50    21    47    1
