@<TRIPOS>MOLECULE
ZVRMGCSSSYZGSM-CCEZHUSRSA-M	6045601	-777.411997225913
 47 46 0 0 0
SMALL
MULLIKEN NwChem

@<TRIPOS>ATOM
      1 C           3.7771   -2.3788   -6.1837 C.3     1  LIG1      -0.45999999999999996
      2 C           3.8489   -2.7587   -4.7002 C.3     1  LIG1        -0.25
      3 C           4.1724   -1.5786   -3.7687 C.3     1  LIG1      -0.2599999999999998
      4 C           3.1710   -0.4107   -3.8151 C.3     1  LIG1      -0.2699999999999996
      5 C           1.7100   -0.7903   -3.5169 C.3     1  LIG1      -0.2699999999999996
      6 C           1.4781   -1.4831   -2.1627 C.3     1  LIG1      -0.2699999999999996
      7 C           1.9646   -0.6944   -0.9341 C.3     1  LIG1      -0.2699999999999996
      8 C           1.3727    0.7184   -0.7887 C.3     1  LIG1      -0.2699999999999996
      9 C          -0.1638    0.7794   -0.7342 C.3     1  LIG1      -0.2699999999999996
     10 C          -0.8114   -0.0599    0.3812 C.3     1  LIG1      -0.2699999999999996
     11 C          -0.3334    0.2663    1.8068 C.3     1  LIG1      -0.2699999999999996
     12 C          -0.5106    1.7341    2.2326 C.3     1  LIG1      -0.2599999999999998
     13 C          -1.9612    2.2618    2.1398 C.3     1  LIG1      -0.3200000000000003
     14 C          -2.9545    1.4256    2.9028 C.2     1  LIG1      -0.09999999999999964
     15 C          -3.5527    1.7666    4.0486 C.2     1  LIG1       -0.23000000000000043
     16 C          -4.5344    0.8498    4.8108 C.2     1  LIG1           0.5
     17 O          -4.9805    1.3503    5.8760 O.co2   1  LIG1      -0.6899999999999995
     18 O          -4.7636   -0.2706    4.2845 O.co2   1  LIG1      -0.6799999999999997
     19 H           2.9526   -1.6850   -6.3823 H       1  LIG1       0.15000000000000002
     20 H           3.6235   -3.2629   -6.8136 H       1  LIG1          0.14
     21 H           4.7050   -1.8915   -6.5104 H       1  LIG1          0.14
     22 H           2.8996   -3.2193   -4.3964 H       1  LIG1          0.14
     23 H           4.6168   -3.5325   -4.5631 H       1  LIG1          0.13
     24 H           4.2440   -1.9529   -2.7390 H       1  LIG1          0.14
     25 H           5.1712   -1.1926   -4.0211 H       1  LIG1          0.13
     26 H           3.5002    0.3543   -3.0999 H       1  LIG1          0.14
     27 H           3.2143    0.0687   -4.8026 H       1  LIG1          0.13
     28 H           1.0989    0.1200   -3.5672 H       1  LIG1          0.14
     29 H           1.3331   -1.4450   -4.3149 H       1  LIG1          0.13
     30 H           0.4053   -1.6891   -2.0584 H       1  LIG1          0.13
     31 H           1.9707   -2.4653   -2.1661 H       1  LIG1          0.13
     32 H           1.7298   -1.2772   -0.0346 H       1  LIG1          0.14
     33 H           3.0606   -0.6154   -0.9611 H       1  LIG1          0.14
     34 H           1.7838    1.1723    0.1222 H       1  LIG1          0.13
     35 H           1.7222    1.3480   -1.6193 H       1  LIG1          0.13
     36 H          -0.4631    1.8287   -0.6152 H       1  LIG1          0.14
     37 H          -0.5762    0.4600   -1.7019 H       1  LIG1          0.14
     38 H          -1.8987    0.0746    0.3308 H       1  LIG1          0.14
     39 H          -0.6350   -1.1273    0.1861 H       1  LIG1          0.14
     40 H          -0.8868   -0.3691    2.5081 H       1  LIG1          0.13
     41 H           0.7264   -0.0094    1.9116 H       1  LIG1          0.14
     42 H          -0.1782    1.8287    3.2749 H       1  LIG1          0.13
     43 H           0.1521    2.3784    1.6333 H       1  LIG1          0.14
     44 H          -1.9746    3.2944    2.5159 H       1  LIG1          0.14
     45 H          -2.2465    2.3198    1.0759 H       1  LIG1       0.15000000000000002
     46 H          -3.2029    0.4375    2.5116 H       1  LIG1          0.12
     47 H          -3.3599    2.7426    4.5043 H       1  LIG1       0.09999999999999998
@<TRIPOS>BOND
     1    20     1    1
     2    21     1    1
     3    19     1    1
     4     1     2    1
     5    27     4    1
     6     2    23    1
     7     2    22    1
     8     2     3    1
     9    29     5    1
    10    25     3    1
    11     4     3    1
    12     4     5    1
    13     4    26    1
    14     3    24    1
    15    28     5    1
    16     5     6    1
    17    31     6    1
    18     6    30    1
    19     6     7    1
    20    37     9    1
    21    35     8    1
    22    33     7    1
    23     7     8    1
    24     7    32    1
    25     8     9    1
    26     8    34    1
    27     9    36    1
    28     9    10    1
    29    39    10    1
    30    38    10    1
    31    10    11    1
    32    45    13    1
    33    43    12    1
    34    11    41    1
    35    11    12    1
    36    11    40    1
    37    13    12    1
    38    13    44    1
    39    13    14    1
    40    12    42    1
    41    46    14    1
    42    14    15    2
    43    15    47    1
    44    15    16    1
    45    18    16   ar
    46    16    17   ar
