@<TRIPOS>MOLECULE
ZWIADYZPOWUWEW-XVFCMESISA-K	11075282	-2025.0155263115576
 37 38 0 0 0
SMALL
MULLIKEN NwChem

@<TRIPOS>ATOM
      1 C          -6.0803   -0.2772   -0.1276 C.ar    1  LIG1      -0.2400000000000002
      2 C          -4.9122    0.1701    0.3763 C.ar    1  LIG1       0.07000000000000028
      3 C           0.6186    0.9900   -0.6607 C.3     1  LIG1       -0.08000000000000007
      4 C          -0.4053    0.6040    0.4188 C.3     1  LIG1       0.1200000000000001
      5 C          -6.1292   -1.6188   -0.7158 C.ar    1  LIG1       0.41999999999999993
      6 C          -0.2528   -0.7565    1.1260 C.3     1  LIG1       0.11000000000000032
      7 C          -1.6412   -0.9118    1.7913 C.3     1  LIG1       0.07000000000000028
      8 C          -2.5533   -0.0185    0.9015 C.3     1  LIG1       0.28000000000000025
      9 C          -3.7930   -1.9002   -0.2919 C.ar    1  LIG1       0.6600000000000001
     10 N          -7.2863   -2.0551   -1.1640 N.pl3   1  LIG1      -0.8099999999999996
     11 N          -4.9674   -2.3521   -0.7707 N.ar    1  LIG1      -0.6799999999999997
     12 N          -3.7669   -0.5930    0.3654 N.ar    1  LIG1      -0.5099999999999998
     13 O           0.7418   -0.8039    2.1238 O.3     1  LIG1      -0.7400000000000002
     14 O          -1.5879   -0.3668    3.1153 O.3     1  LIG1      -0.7100000000000009
     15 O          -2.7197   -2.5182   -0.3376 O.2     1  LIG1      -0.6400000000000006
     16 O           4.9028    0.3711   -3.1600 O.2     1  LIG1      -0.6799999999999997
     17 O           6.0807    0.1001   -0.8227 O.3     1  LIG1      -0.6999999999999993
     18 O           3.8565   -1.1397   -1.3673 O.3     1  LIG1      -0.7599999999999998
     19 O           2.8873    0.0376    0.8994 O.2     1  LIG1      -0.7699999999999996
     20 O           3.5460    2.5703    1.2522 O.3     1  LIG1      -0.6500000000000004
     21 O           1.5309    1.9544   -0.1471 O.3     1  LIG1      -0.5800000000000001
     22 O          -1.7282    0.5189   -0.1392 O.3     1  LIG1      -0.5500000000000007
     23 O           3.8254    1.3963   -1.0598 O.3     1  LIG1      -0.6699999999999999
     24 P           4.8399    0.1535   -1.6742 P.3     1  LIG1       1.0500000000000007
     25 P           3.0492    1.4756    0.3623 P.3     1  LIG1       1.1600000000000001
     26 H          -6.9794    0.3308   -0.0996 H       1  LIG1          0.13
     27 H          -4.8082    1.1547    0.8283 H       1  LIG1       0.18000000000000005
     28 H           0.0717    1.4580   -1.4898 H       1  LIG1       0.17000000000000004
     29 H           1.1422    0.1094   -1.0512 H       1  LIG1       0.17000000000000004
     30 H          -0.3733    1.3949    1.1876 H       1  LIG1          0.14
     31 H          -0.1290   -1.5372    0.3638 H       1  LIG1          0.14
     32 H          -1.9887   -1.9458    1.8141 H       1  LIG1       0.15000000000000002
     33 H          -2.8702    0.8073    1.5581 H       1  LIG1       0.15000000000000002
     34 H          -7.0925   -2.9986   -1.5281 H       1  LIG1          0.25
     35 H           1.6022   -0.4473    1.7231 H       1  LIG1       0.45999999999999996
     36 H          -0.6190   -0.3244    3.2750 H       1  LIG1       0.42000000000000004
     37 H           3.5067   -0.9980   -0.4530 H       1  LIG1       0.44999999999999996
@<TRIPOS>BOND
     1    16    24    2
     2    24    18    1
     3    24    23    1
     4    24    17    1
     5    34    10    1
     6    28     3    1
     7    18    37    1
     8    10     5    1
     9    23    25    1
    10    29     3    1
    11    11     5   ar
    12    11     9   ar
    13     5     1   ar
    14     3    21    1
    15     3     4    1
    16    15     9    2
    17     9    12   ar
    18    21    25    1
    19    22     4    1
    20    22     8    1
    21     1    26    1
    22     1     2   ar
    23    25    19    2
    24    25    20    1
    25    31     6    1
    26    12     2   ar
    27    12     8    1
    28     2    27    1
    29     4     6    1
    30     4    30    1
    31     8    33    1
    32     8     7    1
    33     6     7    1
    34     6    13    1
    35    35    13    1
    36     7    32    1
    37     7    14    1
    38    14    36    1
