@<TRIPOS>MOLECULE
ZWZWYGMENQVNFU-UHNVWZDZSA-M	6045603	-1234.4309134334678
 29 28 0 0 0
SMALL
MULLIKEN NwChem

@<TRIPOS>ATOM
      1 C1          1.7250    1.8078    2.4972 C.3     1  <1>        -0.07000000000000028
      2 C2          1.9849   -0.1633    0.9179 C.3     1  <1>        -0.09999999999999964
      3 C3         -2.3083   -0.6563   -0.8412 C.3     1  <1>        -0.05999999999999961
      4 C4          2.3404    0.4057    2.3039 C.3     1  <1>        0.09999999999999964
      5 C5         -1.3143   -0.5030   -2.0274 C.3     1  <1>        -0.1299999999999999
      6 C6         -1.0277   -1.8646   -2.7058 C.2     1  <1>        0.5599999999999996
      7 N1         -1.7949    0.5057   -2.9790 N.3     1  <1>         -0.75
      8 O1          1.8355    2.6407    1.3426 O.3     1  <1>       -0.6799999999999997
      9 O2          1.9763   -0.4355    3.3818 O.3     1  <1>       -0.6999999999999993
     10 O3         -0.5076   -2.8197   -1.9457 O.3     1  <1>       -0.6300000000000008
     11 O4         -1.2648   -2.0423   -3.8902 O.2     1  <1>       -0.5299999999999994
     12 O5         -0.3931   -2.2180    0.5741 O.2     1  <1>       -0.7300000000000004
     13 O6         -0.6746   -0.5876    2.6212 O.3     1  <1>       -0.6699999999999999
     14 O7          0.6371    0.1375    0.5104 O.3     1  <1>       -0.5899999999999999
     15 O8         -1.8343   -0.0873    0.3845 O.3     1  <1>       -0.5700000000000003
     16 P1         -0.5779   -0.8219    1.1408 P.3     1  <1>        1.2200000000000006
     17 H1          2.2408    2.3218    3.3156 H       1  <1>        0.15000000000000002
     18 H2          0.6766    1.6675    2.7908 H       1  <1>           0.14
     19 H3          2.6239    0.3021    0.1605 H       1  <1>        0.17000000000000004
     20 H4          2.1525   -1.2471    0.9096 H       1  <1>        0.17000000000000004
     21 H5         -2.5670   -1.7077   -0.6749 H       1  <1>        0.17000000000000004
     22 H6         -3.2174   -0.1014   -1.0884 H       1  <1>        0.18000000000000005
     23 H7          3.4376    0.4787    2.3311 H       1  <1>        0.15000000000000002
     24 H8         -0.3703   -0.1450   -1.6041 H       1  <1>        0.20999999999999996
     25 H9         -1.0286    0.7092   -3.6216 H       1  <1>        0.32999999999999996
     26 H10        -2.4758    0.0366   -3.5806 H       1  <1>        0.31999999999999995
     27 H11         1.1972    2.2634    0.7128 H       1  <1>        0.43000000000000005
     28 H12         0.9985   -0.5625    3.3090 H       1  <1>        0.43000000000000005
     29 H13        -0.4138   -2.5474   -0.9667 H       1  <1>            0.48
@<TRIPOS>BOND
     1    11     6    2
     2    25     7    1
     3    26     7    1
     4     7     5    1
     5     6     5    1
     6     6    10    1
     7     5    24    1
     8     5     3    1
     9    10    29    1
    10    22     3    1
    11     3    21    1
    12     3    15    1
    13    19     2    1
    14    15    16    1
    15    14     2    1
    16    14    16    1
    17    12    16    2
    18    27     8    1
    19    20     2    1
    20     2     4    1
    21    16    13    1
    22     8     1    1
    23     4    23    1
    24     4     1    1
    25     4     9    1
    26     1    18    1
    27     1    17    1
    28    28     9    1
