@<TRIPOS>MOLECULE
ZXBGEIHFXPHRJY-NKFDZXFUSA-L	11161634	-2620.7839801280556
 119 118 0 0 0
SMALL
MULLIKEN NwChem

@<TRIPOS>ATOM
      1 C          -1.0603   -1.6516    4.2054 C.2     1  LIG1      -0.1299999999999999
      2 C          -3.6353   -0.6332   -4.8880 C.2     1  LIG1      -0.1299999999999999
      3 C          -1.7664   -0.7461    3.5227 C.2     1  LIG1      -0.13999999999999968
      4 C          -4.6083   -0.2358   -4.0606 C.2     1  LIG1      -0.1200000000000001
      5 C          -1.3856   -3.1105    4.4352 C.3     1  LIG1      -0.2999999999999998
      6 C          -2.6588    0.2489   -5.6349 C.3     1  LIG1      -0.3600000000000003
      7 C          -3.0502   -0.9555    2.7647 C.3     1  LIG1      -0.3099999999999996
      8 C          -4.9410    1.1843   -3.6781 C.3     1  LIG1      -0.3099999999999996
      9 C          -0.1740   -3.8945    4.9710 C.3     1  LIG1      -0.2699999999999996
     10 C          -1.2471    0.0552   -5.1266 C.2     1  LIG1      -0.1299999999999999
     11 C          -2.9217   -0.5194    1.2897 C.3     1  LIG1      -0.28000000000000025
     12 C          -5.4112    1.3242   -2.2188 C.3     1  LIG1      -0.28000000000000025
     13 C           0.9284   -4.1425    3.9309 C.3     1  LIG1      -0.2699999999999996
     14 C          -0.5109    0.9210   -4.4214 C.2     1  LIG1      -0.1200000000000001
     15 C          -1.9818   -1.4063    0.4718 C.3     1  LIG1      -0.2599999999999998
     16 C          -5.5104    2.7982   -1.7837 C.3     1  LIG1      -0.2699999999999996
     17 C           2.1917   -4.7358    4.5716 C.3     1  LIG1      -0.2599999999999998
     18 C          -0.8602    2.3248   -4.0080 C.3     1  LIG1      -0.3200000000000003
     19 C          -1.7906   -0.9234   -0.9715 C.3     1  LIG1      -0.28000000000000025
     20 C          -4.1377    3.3910   -1.4108 C.3     1  LIG1      -0.28000000000000025
     21 C           3.3626   -5.0440    3.6205 C.3     1  LIG1      -0.2999999999999998
     22 C           0.2965    3.2957   -4.3180 C.3     1  LIG1      -0.28000000000000025
     23 C          -0.9902   -1.9210   -1.8252 C.3     1  LIG1      -0.28000000000000025
     24 C          -3.7311    3.0902    0.0404 C.3     1  LIG1      -0.2699999999999996
     25 C           3.0654   -6.1469    2.5786 C.3     1  LIG1      -0.2699999999999996
     26 C          -0.0694    4.7816   -4.1774 C.3     1  LIG1      -0.2699999999999996
     27 C           0.4621   -2.1518   -1.3696 C.3     1  LIG1      -0.2999999999999998
     28 C          -2.2271    3.2559    0.2684 C.3     1  LIG1      -0.3099999999999996
     29 C           2.4623   -5.6226    1.2640 C.3     1  LIG1      -0.28000000000000025
     30 C          -0.5904    5.2142   -2.8002 C.3     1  LIG1      -0.28000000000000025
     31 C           1.5015   -1.1632   -1.9132 C.3     1  LIG1       -0.3700000000000001
     32 C          -1.8323    3.2634    1.7602 C.3     1  LIG1       -0.3600000000000003
     33 C           3.4962   -4.9626    0.3364 C.3     1  LIG1       -0.05999999999999961
     34 C           0.3811    4.9751   -1.6457 C.3     1  LIG1       -0.04999999999999982
     35 C           1.8494    1.4702    0.5025 C.3     1  LIG1       -0.08999999999999986
     36 C           1.5730    0.0905    2.6445 C.3     1  LIG1       -0.05999999999999961
     37 C           1.4427    1.4565    1.9538 C.3     1  LIG1       0.07000000000000028
     38 C           1.4583    0.2778   -1.4816 C.2     1  LIG1       0.6699999999999999
     39 C          -0.3294    3.1054    1.8673 C.2     1  LIG1       0.6399999999999997
     40 O           2.8598   -4.1565   -0.6391 O.3     1  LIG1        -0.75
     41 O          -0.1112    5.6810   -0.5112 O.3     1  LIG1      -0.6999999999999993
     42 O           1.7919    1.2165   -2.1943 O.2     1  LIG1      -0.5399999999999991
     43 O           0.4611    4.0296    1.6962 O.2     1  LIG1      -0.5500000000000007
     44 O           3.8143   -0.6687    0.2404 O.2     1  LIG1      -0.7599999999999998
     45 O           2.1508   -2.3680    1.2460 O.3     1  LIG1      -0.7699999999999996
     46 O           4.5537   -2.2280    2.2107 O.3     1  LIG1      -0.7400000000000002
     47 O           1.0998    0.4487   -0.1934 O.3     1  LIG1      -0.4800000000000004
     48 O           2.8992   -0.3212    2.6618 O.3     1  LIG1      -0.6400000000000006
     49 O           0.0137    1.8468    2.0822 O.3     1  LIG1      -0.46000000000000085
     50 P           3.4369   -1.5099    1.4690 P.3     1  LIG1       1.1199999999999992
     51 H          -0.1237   -1.3171    4.6500 H       1  LIG1          0.13
     52 H          -3.4870   -1.7045   -5.0297 H       1  LIG1          0.13
     53 H          -1.3507    0.2577    3.4409 H       1  LIG1          0.14
     54 H          -5.2230   -1.0037   -3.5868 H       1  LIG1          0.13
     55 H          -1.7407   -3.5748    3.5041 H       1  LIG1       0.15000000000000002
     56 H          -2.2196   -3.1946    5.1526 H       1  LIG1       0.15000000000000002
     57 H          -2.6993   -0.0173   -6.7044 H       1  LIG1       0.15000000000000002
     58 H          -2.9564    1.2987   -5.5685 H       1  LIG1       0.16000000000000003
     59 H          -3.3679   -2.0059    2.8128 H       1  LIG1          0.14
     60 H          -3.8546   -0.3664    3.2380 H       1  LIG1          0.14
     61 H          -4.0687    1.8272   -3.8386 H       1  LIG1       0.16000000000000003
     62 H          -5.7351    1.5828   -4.3325 H       1  LIG1       0.15000000000000002
     63 H          -0.5142   -4.8623    5.3729 H       1  LIG1          0.13
     64 H           0.2424   -3.3441    5.8301 H       1  LIG1          0.13
     65 H          -0.8256   -0.9330   -5.3145 H       1  LIG1          0.13
     66 H          -2.5435    0.5099    1.2587 H       1  LIG1       0.15000000000000002
     67 H          -3.9201   -0.5015    0.8229 H       1  LIG1          0.13
     68 H          -4.7127    0.7919   -1.5596 H       1  LIG1       0.16000000000000003
     69 H          -6.3831    0.8225   -2.1068 H       1  LIG1          0.14
     70 H           0.5293   -4.8346    3.1776 H       1  LIG1          0.13
     71 H           1.1944   -3.2318    3.3768 H       1  LIG1       0.15000000000000002
     72 H           0.4720    0.6048   -4.0797 H       1  LIG1          0.14
     73 H          -1.0087   -1.4561    0.9711 H       1  LIG1          0.14
     74 H          -2.3775   -2.4349    0.4627 H       1  LIG1          0.12
     75 H          -5.9704    3.3774   -2.5982 H       1  LIG1          0.13
     76 H          -6.1858    2.8941   -0.9215 H       1  LIG1          0.13
     77 H           2.5496   -4.0237    5.3314 H       1  LIG1          0.12
     78 H           1.9158   -5.6552    5.1224 H       1  LIG1          0.12
     79 H          -1.7861    2.6739   -4.4873 H       1  LIG1       0.15000000000000002
     80 H          -1.0451    2.3317   -2.9238 H       1  LIG1       0.17000000000000004
     81 H          -1.2818    0.0490   -0.9553 H       1  LIG1          0.14
     82 H          -2.7741   -0.7583   -1.4423 H       1  LIG1          0.13
     83 H          -3.3728    2.9884   -2.0889 H       1  LIG1       0.16000000000000003
     84 H          -4.1278    4.4782   -1.5650 H       1  LIG1          0.14
     85 H           4.2082   -5.3696    4.2478 H       1  LIG1       0.10999999999999999
     86 H           3.6858   -4.1162    3.1251 H       1  LIG1       0.17000000000000004
     87 H           1.1377    3.0343   -3.6670 H       1  LIG1       0.15000000000000002
     88 H           0.6346    3.1201   -5.3495 H       1  LIG1          0.13
     89 H          -1.5282   -2.8824   -1.7999 H       1  LIG1          0.12
     90 H          -1.0084   -1.5898   -2.8725 H       1  LIG1          0.13
     91 H          -4.0221    2.0661    0.3083 H       1  LIG1       0.15000000000000002
     92 H          -4.2940    3.7545    0.7142 H       1  LIG1          0.14
     93 H           3.9988   -6.6852    2.3440 H       1  LIG1          0.12
     94 H           2.3975   -6.9013    3.0303 H       1  LIG1          0.12
     95 H           0.8172    5.3845   -4.4259 H       1  LIG1          0.13
     96 H          -0.8312    5.0339   -4.9318 H       1  LIG1          0.13
     97 H           0.7915   -3.1451   -1.6946 H       1  LIG1          0.13
     98 H           0.5637   -2.1672   -0.2809 H       1  LIG1       0.18999999999999995
     99 H          -1.7024    2.4339   -0.2377 H       1  LIG1       0.17000000000000004
    100 H          -1.8703    4.1879   -0.1810 H       1  LIG1       0.17000000000000004
    101 H           1.7252   -4.8454    1.4753 H       1  LIG1       0.15000000000000002
    102 H           1.9443   -6.4304    0.7218 H       1  LIG1       0.10999999999999999
    103 H          -1.5374    4.7076   -2.5730 H       1  LIG1       0.15000000000000002
    104 H          -0.8166    6.2895   -2.8196 H       1  LIG1          0.13
    105 H           1.5461   -1.1812   -3.0093 H       1  LIG1       0.15000000000000002
    106 H           2.4856   -1.4649   -1.5150 H       1  LIG1       0.18999999999999995
    107 H          -2.3271    2.4480    2.2960 H       1  LIG1       0.18000000000000005
    108 H          -2.1230    4.2166    2.2156 H       1  LIG1       0.17000000000000004
    109 H           4.1909   -4.3572    0.9356 H       1  LIG1          0.13
    110 H           4.0826   -5.7376   -0.1878 H       1  LIG1       0.10999999999999999
    111 H           1.3864    5.3388   -1.9255 H       1  LIG1          0.12
    112 H           0.4834    3.8989   -1.4455 H       1  LIG1       0.15000000000000002
    113 H           2.9038    1.1640    0.4410 H       1  LIG1       0.18999999999999995
    114 H           1.6772    2.4488    0.0473 H       1  LIG1       0.18000000000000005
    115 H           1.2040    0.2269    3.6788 H       1  LIG1          0.14
    116 H           0.9205   -0.6344    2.1471 H       1  LIG1       0.16000000000000003
    117 H           2.0381    2.2078    2.4811 H       1  LIG1       0.17000000000000004
    118 H           2.5473   -3.3809   -0.0841 H       1  LIG1       0.45999999999999996
    119 H           0.1806    5.2098    0.2963 H       1  LIG1       0.43999999999999995
@<TRIPOS>BOND
     1    57     6    1
     2     6    58    1
     3     6    10    1
     4     6     2    1
     5    88    22    1
     6    65    10    1
     7    10    14    2
     8    52     2    1
     9    96    26    1
    10     2     4    2
    11    79    18    1
    12    95    26    1
    13    14    72    1
    14    14    18    1
    15    62     8    1
    16    22    26    1
    17    22    18    1
    18    22    87    1
    19    26    30    1
    20     4     8    1
    21     4    54    1
    22    18    80    1
    23    61     8    1
    24     8    12    1
    25   105    31    1
    26    90    23    1
    27   104    30    1
    28    30   103    1
    29    30    34    1
    30    75    16    1
    31    12    69    1
    32    12    16    1
    33    12    68    1
    34    42    38    2
    35    83    20    1
    36   111    34    1
    37    31   106    1
    38    31    38    1
    39    31    27    1
    40    23    89    1
    41    23    27    1
    42    23    19    1
    43    16    20    1
    44    16    76    1
    45    97    27    1
    46    34   112    1
    47    34    41    1
    48    84    20    1
    49    38    47    1
    50    82    19    1
    51    20    24    1
    52    27    98    1
    53    19    81    1
    54    19    15    1
    55    40   118    1
    56    40    33    1
    57    41   119    1
    58    99    28    1
    59    47    35    1
    60   110    33    1
    61   100    28    1
    62    24    28    1
    63    24    91    1
    64    24    92    1
    65   114    35    1
    66    44    50    2
    67    28    32    1
    68    33   109    1
    69    33    29    1
    70   113    35    1
    71    74    15    1
    72    15    73    1
    73    15    11    1
    74    35    37    1
    75   102    29    1
    76    67    11    1
    77    45    50    1
    78    66    11    1
    79    29   101    1
    80    29    25    1
    81    11     7    1
    82    50    46    1
    83    50    48    1
    84    43    39    2
    85    32    39    1
    86    32   108    1
    87    32   107    1
    88    39    49    1
    89    37    49    1
    90    37   117    1
    91    37    36    1
    92   116    36    1
    93    93    25    1
    94    25    94    1
    95    25    21    1
    96    36    48    1
    97    36   115    1
    98     7    59    1
    99     7    60    1
   100     7     3    1
   101    86    21    1
   102    70    13    1
   103    71    13    1
   104    53     3    1
   105    55     5    1
   106     3     1    2
   107    21    85    1
   108    21    17    1
   109    13    17    1
   110    13     9    1
   111     1     5    1
   112     1    51    1
   113     5     9    1
   114     5    56    1
   115    17    78    1
   116    17    77    1
   117     9    63    1
   118     9    64    1
