@<TRIPOS>MOLECULE
ZXEKIIBDNHEJCQ-UHFFFAOYSA-N	6045605	-233.56092781740563
 15 14 0 0 0
SMALL
MULLIKEN NwChem

@<TRIPOS>ATOM
      1 C           1.9315   -0.8547   -0.6190 C.3     1  LIG1      -0.45999999999999996
      2 C           0.8619    0.0619   -1.2271 C.3     1  LIG1      -0.2599999999999998
      3 C          -0.0593    0.7288   -0.1948 C.3     1  LIG1      -0.2699999999999996
      4 C          -0.9334   -0.2495    0.5810 C.3     1  LIG1       -0.03000000000000025
      5 O          -1.7939    0.5168    1.4206 O.3     1  LIG1      -0.6799999999999997
      6 H           1.4894   -1.7220   -0.1153 H       1  LIG1       0.15000000000000002
      7 H           2.5352   -0.3145    0.1212 H       1  LIG1       0.15000000000000002
      8 H           2.6103   -1.2348   -1.3909 H       1  LIG1       0.15000000000000002
      9 H           0.2537   -0.5091   -1.9435 H       1  LIG1          0.14
     10 H           1.3564    0.8495   -1.8100 H       1  LIG1          0.14
     11 H           0.5361    1.3080    0.5237 H       1  LIG1          0.14
     12 H          -0.7258    1.4417   -0.6966 H       1  LIG1          0.14
     13 H          -1.5118   -0.8686   -0.1277 H       1  LIG1          0.13
     14 H          -0.3088   -0.9341    1.1772 H       1  LIG1          0.13
     15 H          -2.3292   -0.0997    1.9423 H       1  LIG1       0.43000000000000005
@<TRIPOS>BOND
     1     9     2    1
     2    10     2    1
     3     8     1    1
     4     2     1    1
     5     2     3    1
     6    12     3    1
     7     1     6    1
     8     1     7    1
     9     3    11    1
    10     3     4    1
    11    13     4    1
    12     4    14    1
    13     4     5    1
    14     5    15    1
