@<TRIPOS>MOLECULE
ZYGHJZDHTFUPRJ-UHFFFAOYSA-N	6045606	-496.93677563834086
 17 18 0 0 0
SMALL
MULLIKEN NwChem

@<TRIPOS>ATOM
      1 C           2.7658    0.8637    0.0517 C.ar    1  LIG1      -0.15000000000000036
      2 C           2.7501   -0.5396    0.0178 C.ar    1  LIG1      -0.15000000000000036
      3 C           1.5693    1.5672    0.0510 C.ar    1  LIG1      -0.20999999999999996
      4 C           1.5470   -1.2373   -0.0161 C.ar    1  LIG1      -0.1900000000000004
      5 C          -0.9462    1.5402    0.0163 C.ar    1  LIG1      -0.11000000000000032
      6 C          -2.0885    0.8180   -0.0141 C.ar    1  LIG1       -0.23000000000000043
      7 C           0.3384    0.8863    0.0178 C.ar    1  LIG1       0.11000000000000032
      8 C           0.3480   -0.5221   -0.0154 C.ar    1  LIG1       0.3099999999999996
      9 C          -2.0735   -0.6426   -0.0471 C.ar    1  LIG1       0.5999999999999996
     10 O          -3.0415   -1.3637   -0.0738 O.2     1  LIG1      -0.5299999999999994
     11 O          -0.8110   -1.2424   -0.0476 O.2     1  LIG1      -0.5299999999999994
     12 H           3.7114    1.3965    0.0784 H       1  LIG1       0.17000000000000004
     13 H           3.6860   -1.0910    0.0180 H       1  LIG1       0.18000000000000005
     14 H           1.5667    2.6541    0.0764 H       1  LIG1       0.18000000000000005
     15 H           1.5111   -2.3212   -0.0429 H       1  LIG1       0.17000000000000004
     16 H          -0.9781    2.6272    0.0408 H       1  LIG1       0.19999999999999996
     17 H          -3.0719    1.2731   -0.0151 H       1  LIG1       0.18999999999999995
@<TRIPOS>BOND
     1    10     9    2
     2    11     9   ar
     3    11     8   ar
     4     9     6   ar
     5    15     4    1
     6     4     8   ar
     7     4     2   ar
     8     8     7   ar
     9    17     6    1
    10     6     5   ar
    11     5     7   ar
    12     5    16    1
    13     7     3   ar
    14     2    13    1
    15     2     1   ar
    16     3     1   ar
    17     3    14    1
    18     1    12    1
