@<TRIPOS>MOLECULE
ZZZCUOFIHGPKAK-UWTATZPHSA-N	6045609	-570.1547584442321
 16 16 0 0 0
SMALL
MULLIKEN NwChem

@<TRIPOS>ATOM
      1 C          -1.1163   -2.0214    0.2541 C.3     1  LIG1       -0.08000000000000007
      2 C          -0.0387   -1.2277   -0.4891 C.3     1  LIG1       0.040000000000000036
      3 C           0.7982   -0.3698    0.4215 C.2     1  LIG1       0.2999999999999998
      4 C           0.8148    0.8903   -0.0370 C.2     1  LIG1       0.21999999999999975
      5 C          -0.0842    0.9761   -1.2086 C.2     1  LIG1       0.6100000000000003
      6 O          -1.6118   -1.3314    1.3958 O.3     1  LIG1      -0.6500000000000004
      7 O           1.4288   -0.8386    1.5343 O.2     1  LIG1      -0.6699999999999999
      8 O           1.4285    1.9947    0.4392 O.2     1  LIG1      -0.6699999999999999
      9 O          -0.3809    1.9227   -1.8868 O.2     1  LIG1      -0.5299999999999994
     10 O          -0.6293   -0.2837   -1.4051 O.3     1  LIG1      -0.5099999999999998
     11 H          -0.6749   -2.9469    0.6376 H       1  LIG1       0.18999999999999995
     12 H          -1.9144   -2.2918   -0.4508 H       1  LIG1       0.18000000000000005
     13 H           0.5769   -1.9206   -1.0799 H       1  LIG1       0.20999999999999996
     14 H          -2.0140   -0.5030    1.0861 H       1  LIG1       0.43000000000000005
     15 H           0.7453   -1.2604    2.0887 H       1  LIG1       0.45999999999999996
     16 H           1.9188    1.7358    1.2387 H       1  LIG1       0.45999999999999996
@<TRIPOS>BOND
     1     9     5    2
     2    10     5    1
     3    10     2    1
     4     5     4    1
     5    13     2    1
     6     2     1    1
     7     2     3    1
     8    12     1    1
     9     4     3    2
    10     4     8    1
    11     1    11    1
    12     1     6    1
    13     3     7    1
    14     8    16    1
    15    14     6    1
    16     7    15    1
